<?xml version="1.0" encoding="UTF-8"?>

<!-- generated on 2024-08-02 12:47:25.481247 by randomTrips.py v1_20_0+0002-343658e7c64
<configuration>
    <net-file value="Bari.net.xml"/>
    <route-file value="traffic.rou.xml"/>
    <end value="1000.0"/>
    <insertion-density value="50.0"/>
</configuration>
-->

<!-- generated on 2024-08-02 12:47:24 by Eclipse SUMO duarouter Version 1.20.0
<configuration xmlns:xsi="http://www.w3.org/2001/XMLSchema-instance" xsi:noNamespaceSchemaLocation="http://sumo.dlr.de/xsd/duarouterConfiguration.xsd">

    <input>
        <net-file value="Bari.net.xml"/>
        <route-files value="trips.trips.xml"/>
    </input>

    <output>
        <output-file value="traffic.rou.xml"/>
        <alternatives-output value="NUL"/>
    </output>

    <time>
        <begin value="0"/>
        <end value="1000.0"/>
    </time>

    <report>
        <no-warnings value="true"/>
        <ignore-errors value="true"/>
        <no-step-log value="true"/>
    </report>

</configuration>
-->

<routes xmlns:xsi="http://www.w3.org/2001/XMLSchema-instance" xsi:noNamespaceSchemaLocation="http://sumo.dlr.de/xsd/routes_file.xsd">
    <vehicle id="0" depart="0.00">
        <route edges="-960 -105 -1467 -1468 -1515 -1230 -717 -718 -719 799 850 -116 -715 -709 -1055"/>
    </vehicle>
    <vehicle id="3" depart="2.07">
        <route edges="457 -490 -56 -57 -549 -550 1337 1336 451 450 449 -23 -24 -514 -515 -1194"/>
    </vehicle>
    <vehicle id="4" depart="2.75">
        <route edges="-494 140 457 -490 -491 -492 -580 -1069"/>
    </vehicle>
    <vehicle id="5" depart="3.44">
        <route edges="-1502 -459 -676 -717 -718 -719 -720 -721 -713 -1224 -1225 -625 -626 -627"/>
    </vehicle>
    <vehicle id="6" depart="4.13">
        <route edges="-1056 -409 -410 -688 -689 -1228 -1233 -444 -445 -446 -447 -1491 -1147 -425 -426 -427 -1554 -1555 -1556 -658 -659 -660 -661 -662 -663 -664 -665 -142 -143 -144"/>
    </vehicle>
    <vehicle id="7" depart="4.82">
        <route edges="-987 -974 -989 -213 -214 -225 -226 -227 -222 -223 -622 741 -160 -620 572 571 607 606 605 604 603 -142 -143 -144 -1316 -1317 -1318 -1319 406 405 -469 -1169 -412 -413 -414 -407 -408 -409 -410 -688 -689 -1228 1553 1579 1551 -1230 -717 -718 -719 -720 -721 -722 -728 -112 -711"/>
    </vehicle>
    <vehicle id="8" depart="5.51">
        <route edges="-1506 -790 -791 -384 -385 -654 -92 -93 -1357 -1578 -802 -803"/>
    </vehicle>
    <vehicle id="9" depart="6.20">
        <route edges="1553 1579 1551 1515 1468 1467 1469 -444 -445 -446 -447 -1491 -1147 -425 -426 -427 -1554 -1555 -1556 -430 -431 -432 -433 -434 -435 -436 -437 -1271 -370 -371 -372 -373 520 519 1450 1013 -1453 -1011"/>
    </vehicle>
    <vehicle id="10" depart="6.88">
        <route edges="1542 1540 -1135 -1136 -1137 -1138 -1139 -1140 -1141 -1549 -658 -659 -660 -661 -662 -663 -664 -665 -142 -143 -144 -1316 -1317 -173 1089"/>
    </vehicle>
    <vehicle id="11" depart="7.57">
        <route edges="-328 -329 -330 -772 -440 -1245 -1246 -1247 -321 -359 -704 -705 -706 -1346"/>
    </vehicle>
    <vehicle id="13" depart="8.95">
        <route edges="-1206 -1207 1204 12 -1217"/>
    </vehicle>
    <vehicle id="14" depart="9.64">
        <route edges="265 748 -560 -561 -562 -563 -564 -565 -566 -567 -250 -251 -252 -659 -660 -661 -662 -181 -182 -183 -1319 406 405 -469 -1169 -412 -413 -414 -407 -408 -409 -410 -688 -689 -1228 1553 1579 1551 -1230 -717 -718 -719 -720 -721 -713 -839"/>
    </vehicle>
    <vehicle id="15" depart="10.33">
        <route edges="1545 -696 -697 -1051 -629 1225 -624 720 719 718 717 -1229 -1579 -1553 -1233 -1469 -1467 -1231 -503 -504 -1569 -545 -546 -1149 -1151 1332 543 542 541 -123 -1441 1192 1191"/>
    </vehicle>
    <vehicle id="17" depart="11.70">
        <route edges="-409 -410 -688 -689 -1228 1553 1579 1551 -1230 -717 -718 -719 -720 -721 -722 -728 -729 -730 797 -726"/>
    </vehicle>
    <vehicle id="18" depart="12.39">
        <route edges="200 -210 -211 -212 -213 -214 -225 -226 -227 -222 -223 -622 741 -160 -161 -162 1590 1575 1574 1573 -876 -869"/>
    </vehicle>
    <vehicle id="19" depart="13.08">
        <route edges="308 276 275 274 273 272 271 270 -285 -422 -1387 -1388 -1389 -1390 -297 -650 -651 -652 -653 -654 1577 1576 1570 1569 504 503 -1232 -1515 -1230 -717 -718 -719 -720 -721 -713 -839 -840 -841 -842 -91 -72 -78"/>
    </vehicle>
    <vehicle id="20" depart="13.77">
        <route edges="1166 1165 -1084 -1085 -1079 -1080 1511 1510 1509 1508 1101 -1103"/>
    </vehicle>
    <vehicle id="22" depart="15.15">
        <route edges="-1176 -1177 -26 -27 -28 -408 -409 -410 -688 -689 -1228 -1233 -1469 -1467 -1231 -503 -504 -1569 -1570 -1576 -1577 -1504 -1505 -1506 -1507 -1508 -1509 -1510 -1511 -1512 -1513 -1514"/>
    </vehicle>
    <vehicle id="23" depart="15.84">
        <route edges="-1231 -1232 -1515 -1551 -1579 -1227 689 688 -1518 -1519 -1520 -1521 -1522 -1552 -448 -449 -450 -451 -1336 -1337 -463 -464 -138 40 -404 -1313 -1314 -1315 -1316 -1317 -173"/>
    </vehicle>
    <vehicle id="24" depart="16.52">
        <route edges="-95 -1376 -1290 -16 -17 -18 -19 -1519 -35 -27 -28 -29 -30 -446 -447 -1491 -1147 -425 -426 -427 -1554 -1555 -1556 -430 -431 -432 -433 -345 -346"/>
    </vehicle>
    <vehicle id="25" depart="17.21">
        <route edges="-394 1037 -836 -1100 -1101 1507 1506 1505 1504 1577 1576 1570 1569 504 503 -1232 -1515 -1551 -1579 -1553 -1233 -1469 -1467 -1468"/>
    </vehicle>
    <vehicle id="26" depart="17.90">
        <route edges="-176 -177 -662 -181 -182 -183 -1319 406 405 -469 -1169 -412 -413 -414 -407 -408 -409 -410 -688 -689 -1228 1553 1579 1551 -1230 -717 -718 -719 -720 -721 -713 -839 852 851 -1460 -1461 -70 -1464 1464 70"/>
    </vehicle>
    <vehicle id="27" depart="18.59">
        <route edges="-983 -1261 266 265 -749 -1271 -1133 -1134 -1135 -1136 -1137 -1138 -1139 -1140 -1141 -1546 -1547 -1548 -423 -424 -420 -421 -422 -1387 -1388 -1389 -1390 -297 -650 -651 -379 -380 -381 -382 -387 -388 -383 -384 -849"/>
    </vehicle>
    <vehicle id="29" depart="19.97">
        <route edges="-1379 -1380 -1033 1384 1383 1594 -1032 -1370 -1387 -1388 -1389 -1390 -297 -1487 -1488 -1145 -1489 -1490 -1471 -1472 -1473 -1482 -1491 -1147 -425 -426 -427 -1554 -1555 -1556 -430 -431 -432 -433 -434 -435 -436 -437 -1271 -370 -371 -372 -373"/>
    </vehicle>
    <vehicle id="30" depart="20.65">
        <route edges="95 94 -1054 1291 -16 1 3 2 -448 -449 -450 -451 -1336 -1337 -463 -464 -138 40 -404 -139 -494 -495 -496 -497 -498 -150 -151 -642 -643 -644 -875 -551 -261 -568 -569 -570 -918 -241 -242 -897 -915 -914"/>
    </vehicle>
    <vehicle id="31" depart="21.34">
        <route edges="-781 -782 -1186 -789 -779 -780 -1436 -1437 -1438 -1439 -428 -429 -1275 -1133 -1134 -1135 -1136 -1137 -1138 -1139 -1140 -1141 -1546 -1547 -1548 -423 -424 -420 -421 -422 -1387 -1388 -1389 -1390 -297 -650 -651 -652 -653 -654 -92 -93 -1357 -1578 -79 -80 -81 -82 -83 -84 1108 1107 1109 -1098 -1046 640 1043"/>
    </vehicle>
    <vehicle id="32" depart="22.03">
        <route edges="232 -239 45 44 43 42 667 666 -142 -143 -144 -1316 -1317 -1318 -1319 -1320 -1321 -1322 -1550 -423 -424 -420 -421 -422 -1387 -1388 -1389 -1390 -297 -1487 -1488 -1027 -1377 1386 1385"/>
    </vehicle>
    <vehicle id="33" depart="22.72">
        <route edges="-1524 -1525 -19 -1519 -1520 -1521 -1522 -1552 -448 -449 -450 -451 -1336 -1337 -463 -464 -138 40 -404 -139 -489 -457 -458 -478 -479 -480 -481 159 -1072"/>
    </vehicle>
    <vehicle id="34" depart="23.41">
        <route edges="-272 -273 -274 -275 -276 -277 -293 -294 -295 -1348 -1349 -1350 -1351 -1352 -1353 -1354 -1355 -1356 -1549 -658 -659 -660 -661 -662 -663 -664 -665 -603 -604 -605 -606 -607 -608 -572 -573 -764 -1586 -1587 -1589 -1571 -1572 -1573 -1574 -1575 -1590"/>
    </vehicle>
    <vehicle id="35" depart="24.10">
        <route edges="-1489 -1490 -1471 -1472 -1473 -102 -103 -104 -105 -1467 -1468 -1515 -1230 -717 -718 -719 799 850 115 -798 -799 719"/>
    </vehicle>
    <vehicle id="36" depart="24.79">
        <route edges="355 354 353 352 351 350 349 348 347 346 345 -434 -552 -553 -554 -555 -556 -244"/>
    </vehicle>
    <vehicle id="37" depart="25.47">
        <route edges="-998 -999 -207 -968 -223 -622 741 -160 -620 572 571 607 606 605 604 603 -142 -143 -144 -1316 -1317 -173 1089 -406"/>
    </vehicle>
    <vehicle id="38" depart="26.16">
        <route edges="559 -437 -1271 -1133 -1134 -1135 -1136 -1137 -1138 -1139 -439 -440 -1245 -527 -528"/>
    </vehicle>
    <vehicle id="39" depart="26.85">
        <route edges="-172 -467 -468 -469 -677 -426 -427 -1554 -1555 -1556 -430 -431 -432 -433 -434 -435 -436 -437 -1271 -1133 -1134 -1540 -1541"/>
    </vehicle>
    <vehicle id="40" depart="27.54">
        <route edges="-79 -137 -1501 -1502 -459 -460 504 503 -1232 -1515 -1551 -1579"/>
    </vehicle>
    <vehicle id="41" depart="28.23">
        <route edges="-84 -85 -86 722 721 720 719 718 717 -1229 -1579 -1553 -1233 -444 -445 -446 -447 -1491 -1147 -425 -426 -427 -1554 -1555 -1556 -658 -659 -660 -661 -662 -663 -664 -665 -666 -667 -42 -43 -44 -45 -46 -152 -153 -154 -155 484 483"/>
    </vehicle>
    <vehicle id="42" depart="28.92">
        <route edges="-449 -450 -451 -1336 -1337 -463 -464 -138 40 -404 -139 -494 -495 -667 -42 -43 -44 -45 -46 -47 -48 -49 -148 -149"/>
    </vehicle>
    <vehicle id="43" depart="29.61">
        <route edges="98 -108 -1053 -1054 1291 -16 -17 1017 -635"/>
    </vehicle>
    <vehicle id="44" depart="30.29">
        <route edges="-120 -730 -731 -1132 -82 -83 -84 -85 -1110 -1106"/>
    </vehicle>
    <vehicle id="45" depart="30.98">
        <route edges="-1250 -1066 -857 -858 -859 -860 -624 720 719 718 717 -1229 -1579 -1553 -1233 -444 -445 -446 -447 -1491 -1147 -425 -426 -427 -1554 -1555 -1556 -658 -659 -660 -661 -662 -663 -257 -888"/>
    </vehicle>
    <vehicle id="46" depart="31.67">
        <route edges="1507 1506 1505 1504 1577 1576 1570 1569 504 503 -1232 -1515 -1551 -1579 -1227 689 688 -1518 -1519 -1520 -1521 -1522 -1552 -448 -449 -450 -451 -1336 -1337 -463 -464 -138 40 -404 -139 -489 456 455 -1311 1088 -1086 -456"/>
    </vehicle>
    <vehicle id="47" depart="32.36">
        <route edges="-1141 -1546 -1547 -1548 -423 -424 -420 -421 -422 -1387 -1388 -1389 -1390 -297 -650 -651 -379"/>
    </vehicle>
    <vehicle id="48" depart="33.05">
        <route edges="977 -227 -222 -223 -622 741 -160 -161 -162 -1543 -1544 -1586 -756 -882 -471 -472 -473 -474 -475 -476 486 485 484 483 482 481 480 479 478 -670 -671 -672 -673"/>
    </vehicle>
    <vehicle id="50" depart="34.42">
        <route edges="-1023 1167 1166 1165 1164 1162"/>
    </vehicle>
    <vehicle id="51" depart="35.11">
        <route edges="1097 609 722 721 720 719 718 717 -1229 -1579 -1227 689 688 -1518 -1519 -1520 -1521 -1522 -1552 -448 -449 -893 -691 -692"/>
    </vehicle>
    <vehicle id="52" depart="35.80">
        <route edges="-176 -177 -254 -648 -649 -875 -551 -261 -568 -569 -570 -918"/>
    </vehicle>
    <vehicle id="53" depart="36.49">
        <route edges="-1258 -1259 -968 -223 -622 741 -160 -161 -162 -1543 -1544 -1586 -756 -882 -471 -472 -473 -474 -475 -147 49 -1091 -229 -1182 -48"/>
    </vehicle>
    <vehicle id="54" depart="37.18">
        <route edges="-558 -602 -863 -864 -865 -866 -867 -438 -1140 -1141 1356 1355 1354 1353 -324 -325 -326 769"/>
    </vehicle>
    <vehicle id="55" depart="37.87">
        <route edges="354 -334 -335 -321 -322 -323 320 -518 302 301 300 -290 -291 -292 273 272 271 270 -285 -422 -1387 -1388 -1389 -1390 -297 -650 -651 -652 -653 -654 -92 -93 -1357 -1578 -802 -803 -804 -130 -1580"/>
    </vehicle>
    <vehicle id="57" depart="39.24">
        <route edges="534 305 -318 -319 -1346 -1347 -531 -532 -533 -1243 -1244 -1245 -1246 338"/>
    </vehicle>
    <vehicle id="58" depart="39.93">
        <route edges="-237 -238 231 230 229 1091 -49 -148 -149 -150 -151 -642 -643 -644 -875 -863 -864 -865 -866 -867 -438 -439 -440 -1245 -527 -906 -902 -909 -910 -911"/>
    </vehicle>
    <vehicle id="59" depart="40.62">
        <route edges="-889 604 603 -142 -143 -144 -1316 -1317 -1318 -1319 -1320 -1321 -1322 -1550 -423 -424 -420 -421 -422 -1387 -1388 -1389 -1390 -297 -650 -651 -652 -536 -1441 1192 -1338"/>
    </vehicle>
    <vehicle id="60" depart="41.31">
        <route edges="1374 1373 -1278 -1279 603 -142 -143 -144 -1316 -1317 -1318 -1319 406 405 -469 -1169 -412 -413 -414 -407 -408 -409 -410 -688 -689 -1228 1553 1579 1551 -1230 -717 -718 -719 -720 -721 -713 -839 852 851 -1460 -1461 -70"/>
    </vehicle>
    <vehicle id="61" depart="42.00">
        <route edges="1450 1013 -1453 -1011 -1012 -1013 -1450 -1451 -520 -951 -509 -510 -511 -512 -1133 -1134 -1135 -1136 -1137 -1138 -1139 -1140 -1141 -1546 -1547 -1548 -423 -424 -420 -421 -422 -1387 -1388 -1389 -1390 -297 -650 -651 -652 -653 -654 -92 -93 -1357 -1578 -79 -137 -1501 -1502 -459 -676"/>
    </vehicle>
    <vehicle id="62" depart="42.69">
        <route edges="-1000 203 1493 1492 -983 -1261 266 265 748 -560 559 -437 749 -265"/>
    </vehicle>
    <vehicle id="63" depart="43.38">
        <route edges="-1040 1098 1097 609 722 721 720 719 718 717 -1229 -1579 -1553 -1233 -444 -445 -446 -447 -1491 -1147 -425 -426 -427 -1554 -1555 -1556 -658 -659 -660 -661 -662 -663 -664 -665 -666 -667 -668 -669 -478 -479 -1095 64"/>
    </vehicle>
    <vehicle id="65" depart="44.75">
        <route edges="-254 -648 -649 -179 -180 -181 -182 -183 -1319 406 405 -469 -1169 -412 -413 -414 -407 -408 -409 -410 -688 -689 -1228 1553 1579 1551 -1230 -717 -718 -719 -720 -721 -722 -728 -729 -730 -731 -1132"/>
    </vehicle>
    <vehicle id="66" depart="45.44">
        <route edges="364 1541 1540 -1135 -1136 -1137 -1138 -1139 -1140 -1141 -1546 -1547 -1548 -423 -424 -420 -421 -422 -1387 -1388 -1389 -1390 -297 -650 -651 -652 -653 -654 -92 -93 -1357 -1578 -79 -80 -81 1132 1131 735 -725 -726 118 727"/>
    </vehicle>
    <vehicle id="67" depart="46.13">
        <route edges="-119 -120 -730 797 -726 118 117 116 -850 -799 719 718 717 -1229 -1579 -1227 689 688 -1518 -1519 -1520 -1521 -1522 -1552 -448 -449 -450 -451 -1336 -1337 -463 -464 -138 40 -404 -139 -489 -490 -491 -492 -580 -581"/>
    </vehicle>
    <vehicle id="68" depart="46.82">
        <route edges="-1153 1188 346 -1138 -1139 -1140 -1141 -1549 -658 -659 -660 -661 -662 -663 -664 -665 -142 -143 -487 -488 -489 -490 -56 -57 -549 -550 1337"/>
    </vehicle>
    <vehicle id="69" depart="47.51">
        <route edges="1381 1380 1379 1378 -1370 -1387 -1388 -1389 -1390 -297 -1487 -1488 -1145 -1489 -1490 -1471 -1472 -1473 -1482 -1491 -1147 -425 -426 -427 -1554 -1555 -1556 -430 -431 -432 -433 -434 -435 -436 -437 -1272 -1273 -1429 -1038 -675 -1428 -1284 -1285"/>
    </vehicle>
    <vehicle id="70" depart="48.19">
        <route edges="-603 1279 1278 1277 1276 496 666 -142 -143 -144 -1316 -1317 -1318 -1319 406 405 -469 -1169 -412 -413 -414 -407 -408 -409 -410 -688 -689 -1228 1553 1579 1551 -1230 -717 -718 -719 -720 -721"/>
    </vehicle>
    <vehicle id="71" depart="48.88">
        <route edges="-172 -467 -468 -469 -677 -426 -427 -1554 -1555 -1556 -430 -431 -438 -439 -773 -774 348 347"/>
    </vehicle>
    <vehicle id="72" depart="49.57">
        <route edges="-496 -1276 -1277 -1278 -1279 603 -142 -143 -144 -1316 -1317 -1318 -1319 -1320 -1321 -1322 -1550 -423 -424 -420 -421 -422 -1387 -1388 -1389 -1390 -297 -1487 -1488 -1145 -1489 -1490 -1471 -1472 -1473"/>
    </vehicle>
    <vehicle id="73" depart="50.26">
        <route edges="-745 -746 -240 -241 -242 -243 -244 -864 -865 -866 -867 -438 -1140 -1141 -1546 -1547 -1548 -423 -424 -420 -421 -422 -1387 -1388 -1389 -1390 -297 -1487 -1488 -655 1442 1338 1191"/>
    </vehicle>
    <vehicle id="74" depart="50.95">
        <route edges="-1465 -1431 -1433 -1434 -1435 -1436 -1437 -1438 -1439 -428 -429 -1275 1271 749 748 747 746 745 744 743 742 741 -160 -161 -162 -1543 -1544 -1586 -756 -882 -471 -472 -473 -474 -475 -147 49 -1091 -229 -230 -231 -239"/>
    </vehicle>
    <vehicle id="75" depart="51.64">
        <route edges="966 958 125 -122 -123 -1441 1340 -1339 -1489 -1490 -1471 -1472 -1473 -1482 -1491 -1147 -425 -426 -427 -1554 -1555 -1556 -430 -431 -432 -433 -434 -435 -436 -437 -1271 -370 -371 -372 1358 -945 -952 -938"/>
    </vehicle>
    <vehicle id="76" depart="52.33">
        <route edges="-526 -508 -509 -510 -511 -512 -1133 -1134 -1135 -1136 -1137 -1138 -1139 -1140 -1141 -1546 -1547 -1548 -423 -424 -420 -421 -422 -1387 -1388 -1389 -1390 -297 -650"/>
    </vehicle>
    <vehicle id="77" depart="53.01">
        <route edges="-1280 -1281 1281 1280 1285 1284 -1401 -833 -1430 -1431 -1433 -1434 -1435 -1436 -1437 -1438 -1439 -428 -429 -1275 1271 749 748 747 746 745 744 743 742 741 -160 -161 -162 -1543 -1544 -1586 -756 -882 -471 -472 -473 -474 -475 -476 486 485 484 483 482 481 480 479 478 458 457 -490 -56 -57 -549 -550 1337 1336 451 450 449 448 -2 -3 -14 -15"/>
    </vehicle>
    <vehicle id="78" depart="53.70">
        <route edges="-323 320 -518 302 301 300 -290 -291 -292 273 272 271 270 -285 -422 -1387 -1388 -1389 -1390 -297 -650 -651 -379 -380 -381 -382 -387 -388 -389 -393 -394 -395 -396 -397 -800 -801"/>
    </vehicle>
    <vehicle id="79" depart="54.39">
        <route edges="-1526 -1528 -1524 -1525 -19 -1519 -35 -27 -28 -29 -30 -446 -447 -1491"/>
    </vehicle>
    <vehicle id="80" depart="55.08">
        <route edges="-1157 1155 -1293 -1294 -1295 -1296 -766 73 72 -1463 -844 -845 -846 -855 -856 -857 -858 -859 -860 -624 720 719 718 717 -1229 -1579 -1553 -1233 -444 -445 -446 -447 -1491 -1147 -425 -426 -427 -1554 -1555 -1556 -430 -431 -432 -433 -434 -552 -553 -554 -246 -898"/>
    </vehicle>
    <vehicle id="81" depart="55.77">
        <route edges="-1524 -1525 -19 -1519 -35 -27 -28 -29 -30 -446 -447 -1491 -1147 -425 -426 -427 -1554 -1555 -1556 -430 -431 -432 -433 -434 -435 -436 -437 -1271 512 511 510"/>
    </vehicle>
    <vehicle id="82" depart="56.46">
        <route edges="302 301 -295 -1348 -1349 -1350 -1351 -1352 -1353 -1354 -1355 -1356 -1549 -658 -659 -660 -661 -254 -648 -649 -875 -551 -261 -568 -596 -1158"/>
    </vehicle>
    <vehicle id="83" depart="57.15">
        <route edges="-155 484 483 482 481 480 479 478 458 457 -490 -56 -57 -549 -550 1337 1336 451 450 449 448 -2 -3 -4 -17 1017 634 1239 1222 -1219 -1197 -1220 1198 -73 766 1296 -99"/>
    </vehicle>
    <vehicle id="84" depart="57.83">
        <route edges="-1494 202 201 200 -210 -211 -212 -213 -214 -225 -226 -227 -222 -223 -622 741 -160 -161 -162 -1543 -1544 -1586 -756 -882 -471 -472 -473 -474 -475 -476 486 485 484 483 482 481 480 479 478 458 457 -490 -56 -57 -549 -550 1337 1336 451 450 449 448 -2 -3 -4 -17 1017 634 1239 1222 -1219 -1197 -1220 1198 -73 766 1296 1295 1294 1293 -1155 -1156 -1157 1155 -1293 -1294"/>
    </vehicle>
    <vehicle id="85" depart="58.52">
        <route edges="670 458 457 -490 -56 -57 -549 -550 1337 1336 451 450 449 448 -2 -3 -4 -17 1017 634 633 -630 -631 -1250 -1066 -857 -858 -859 -860 1224 -839 852 851 -1460 -1461 -70 -71 1297 -766"/>
    </vehicle>
    <vehicle id="87" depart="59.90">
        <route edges="1549 -1546 -1547 -1548 -423 -1423"/>
    </vehicle>
    <vehicle id="88" depart="60.59">
        <route edges="-1222 -1239 -634 -1017 -18 1525 1524 1523 -1522 -1552 -448 -449 -450 -451 -1336 -1337 -463 -464 -138 40 -404 -139 -494 -495 666 -603 -604 -605 -606 -607 -608 -881 -882 -471 -472 -473"/>
    </vehicle>
    <vehicle id="89" depart="61.28">
        <route edges="-497 -1371 605 604 603 -142 -143 -144 -1316 -1317 -1318 -1319 406 405 -469 -1169 -412 -413 -414 -407 -408 -409 -410 -688 -689 -1228 -1233 -1469 -1467 -1231 -503 -504 -1569 -1570 -1576 -121 -122 -541 -542 -543"/>
    </vehicle>
    <vehicle id="91" depart="62.65">
        <route edges="935 934 933 932 931 -927 -429 -1275 -1133 -1134 -1135 -1136 -1137 -1138 -1139 -1140 -1141 -1546 -1547 -1548 -423 -424 -420 -421 -422 -1387 -1388 -1389 -1390 -297 -650 -651 -652 -653 -654 1577 -121 -122"/>
    </vehicle>
    <vehicle id="92" depart="63.34">
        <route edges="-454 -30 -446 -447 -1491 -1147 -1146 -420 -284 -269 -270 -271 -272 -273 -274 -275 -276 -277 -293 -294 -295"/>
    </vehicle>
    <vehicle id="94" depart="64.72">
        <route edges="-1436 -1437 -1438 -1439 -428 -429 -1275 -370 -371 -372 -373 -521 -374 -507 -508"/>
    </vehicle>
    <vehicle id="95" depart="65.41">
        <route edges="-492 -580 -1069 -55 -56 -57 -1310 -1311 -1312 -1313 -1314 -1315 -1316 -1317 -173 -174"/>
    </vehicle>
    <vehicle id="97" depart="66.78">
        <route edges="-537 -538 -539 -540 -104 -105 1469 -444 -445 -446 -447 -1491 -1147 -425 -426 -427 -1554 -1555 -1556 1549 1356 1355 1354 1353 1352 1351 1350 1349 1348 1347 -518 302"/>
    </vehicle>
    <vehicle id="98" depart="67.47">
        <route edges="-769 -327 -328 -329 -330 -442 -1141 -1546 -1547 -1548 -423 -424 -420 -421 -422 -1387 -1388 -1389 -1390 -297 -650 -651 -652 -653 -654 1577 1576 1570 1569 504 503 -1232 -1515 -1230 -717 -718 -719 -720 -721 -713 -839 -840 -841 -842 -91 -72 -73 766 1296 1295 1294 1293 1292 1054 1053 -623 -1115"/>
    </vehicle>
    <vehicle id="101" depart="69.54">
        <route edges="269 268 -423 -424 -420 -421 -422 -1387 -1388 -1389 -1390 -297 -650 -651 -652 -653 -654 -92 -93 -1357 -1578 -79 -137"/>
    </vehicle>
    <vehicle id="102" depart="70.23">
        <route edges="-629 1225 -624 720 719 718 717 -1229 -1579 -1553 -1233 -444 -445 -446 -447 -1491 -1147 -425 -426 -427 -1554 -1555 -1556 -430 -431 -432 -433 -434 -435 -436 -437 -1271 -370 -371 -372 1358 -945 -952 937 936 935 934 944 -1478"/>
    </vehicle>
    <vehicle id="103" depart="70.92">
        <route edges="-451 -1336 -1337 -463 -464 -465 -466 -467 -468 -469 -677 -426 -427 -1554 -1555 -1556 -430 -431 -432 -433 -434 -435 -436 -437 -1271 -1133 -1134"/>
    </vehicle>
    <vehicle id="104" depart="71.60">
        <route edges="-41 -21 -22 -464 -465 -466 -467 -468 -469 -677 -426 -427 -1554 -1555 -1556 -430 -431 -432 -433 -434 -435 -436 -437 -1271 -370 -371 -372 1358 -945 -952 937 936"/>
    </vehicle>
    <vehicle id="106" depart="72.98">
        <route edges="-56 -57 -1310 -455 -456 -457 -458"/>
    </vehicle>
    <vehicle id="108" depart="74.36">
        <route edges="-779 -780 -1436 -1437 -1438 -1439 -428 -429 -1275 -1133 -1134 -1135 -1136 -1137 -1138 -1139 -1140 -1141 -1546 -1547 -1548 -423 -424 -420 -421 -422 -1387 -1388 -1389 -1390 -297 -650 -651 -652 -653 -654 -92 -1159 -1168 1168 1159"/>
    </vehicle>
    <vehicle id="111" depart="76.42">
        <route edges="-750 573 572 571 607 606 605 604 1279 1278 1277"/>
    </vehicle>
    <vehicle id="112" depart="77.11">
        <route edges="-1127 -381 -382 -387 -388 -389 1510 1509 -794"/>
    </vehicle>
    <vehicle id="113" depart="77.80">
        <route edges="-662 -181 -182 -183 -1319 -1320 -1321 -1322 -1550 -268 -269 -270 -286 286 270 269 268"/>
    </vehicle>
    <vehicle id="115" depart="79.18">
        <route edges="-1176 -806 -37 -38 -417 -418 -419 -1337 -463 -464 -138 40 -404 -139 -494 -141"/>
    </vehicle>
    <vehicle id="117" depart="80.55">
        <route edges="-1544 -1586 -1587 -1589 -1571 -1572 -1573 -1574 -1575 -739 -740 -741 -742 -743 -744 -745 -746 -747 -748 -265 -266 -1172 -1266"/>
    </vehicle>
    <vehicle id="118" depart="81.24">
        <route edges="450 449 -23 -24 -25 -26 -27 -28 -29 -30 -446 -447 -1491 -1147 -425 -426 -427 -1554 -1555 -1556 -430 -431 -432 -433 -434 -435 -436 -437 -1271 -1133 -1134 -1540"/>
    </vehicle>
    <vehicle id="119" depart="81.93">
        <route edges="-860 -624 -721 -722 -728 -729 -730 -731 -732 -723 1357 -594 -397 -800 -801 -87"/>
    </vehicle>
    <vehicle id="120" depart="82.62">
        <route edges="-488 139 -1313 -170 -171 -172 -467 -468 -469 -1169 -412 -413 -414 -407 -408 -409 -410 -688 -689 -1228 -1233 -1469 -1467 -1231 -503 -504 -1569 -1570 -1576 -1577 -1504 -1505 -1506 -1507 -1508 -794 -795 -793"/>
    </vehicle>
    <vehicle id="121" depart="83.31">
        <route edges="-71 1297 -766 73 72 -1463 -844 -845 -846 -855 -856 -857 -858 -859 -860 -624 720 719 718 717 -1229 -1579 -1227 689 688"/>
    </vehicle>
    <vehicle id="122" depart="84.00">
        <route edges="-1472 -1473 -1482 -1491 -1147 -425 -426 -427 -1554 -1555 -1556 -430 -431 -432 -433 -345 -346 -1188 1153"/>
    </vehicle>
    <vehicle id="123" depart="84.69">
        <route edges="-1550 -423 -1423 -427 -1554 -1555 -1556 -658 -659 -660 -661 -662 -663 -664 -665 -142 -143 -144 -1316 -1317 -173 1089 -406"/>
    </vehicle>
    <vehicle id="124" depart="85.37">
        <route edges="1068 234 233 668 667 666 -603 -604 -605 -606 -642 -643 -644 -875 -863 -864 -865 -245 -246 -247 -216 -217"/>
    </vehicle>
    <vehicle id="125" depart="86.06">
        <route edges="-273 -274 -275 -276 -277 -293 -294 -295 -531 -532 1062 -517 332 1288"/>
    </vehicle>
    <vehicle id="126" depart="86.75">
        <route edges="-116 -117 727 -712 119 118 117 116 -850 -799 719 718 717 -1229 -1579 -1553 -1233 -444 -445 -446 -447 -1491 -1147 -425 -426 -427 -1554 -1555 -1556 -430 -431 -438 -439 -440 -1245 -527"/>
    </vehicle>
    <vehicle id="127" depart="87.44">
        <route edges="983 -1492 -1493 -1001 -1002 -1003 -204 -205 -206 -207 1259 1258 215 -225 978"/>
    </vehicle>
    <vehicle id="128" depart="88.13">
        <route edges="-1161 -1162 -1164 -1084 -1085 -1079 -1080 1511 1510 1509 1508 1507 1506 1505 1504 1577 1576 1570 1569 504 503 -1232 -1515 -1551 -1579 -1553 -1233 -444 -445 -446 -447 -1491 -1147 -425 -426 -427 -1554 -1555 -1556 -430 -431 -432 -433 -434 -435 -436 -437 -1271 -370 -371 -372 1358 -945 -952 937 936 935 934 933 922 -1477"/>
    </vehicle>
    <vehicle id="129" depart="88.82">
        <route edges="-172 -467 -468 -405 -406 -175 -176 -177 -662 -663 -664 -665 -666 -667 -668 -669 -478 -479 -1095 -1096 -52 671"/>
    </vehicle>
    <vehicle id="130" depart="89.50">
        <route edges="376 -1389 -1390 -297 -1487 -1488 -1145 -1489 -1490 -1471 -1472 -1473 -1482 -1491 -1147 -425 -426 -427 -1554 -1555 -1556 -430 -431 -432 -433 -434 -435 -436 -437 -1271 -1133 369 368 367"/>
    </vehicle>
    <vehicle id="131" depart="90.19">
        <route edges="-391 -1304 1166 1165 -1084 -1085 -1079 -1080 1511 1510 1509 1508 1507 1506 1505 1504 1577 1576 1570 1569 504 503 -1232 -1515 -1551 -1579 -1553 -1233 -444 -445 -446 -447 -1491 -1147 -1146 -420 -284 -269 -270 -271 -272 -273 -274 -275 -276 -277 -293 -294 -295 -1348 -1349 -1350"/>
    </vehicle>
    <vehicle id="132" depart="90.88">
        <route edges="210 199 -996 -211 -212 -213 -214 -225 -226 -227 -222 -223 -622 741 -160 -620 572 571 607 606 605 604 603 -142 -143 -144 -1316 -1317 -1318 -1319 406 405 -469 -1169 -412 -413 -414 -407 -408 -409 -410 -688 -689 -1228 1553 1579 1551 -1230 -717 -718 -719 -720 -721 -722 -1516 -610 -1109 1106"/>
    </vehicle>
    <vehicle id="134" depart="92.26">
        <route edges="-994 -992 204 1003 984 -1261 266 -264 -1429 -1038 -675 -1428 -1401 -833 -1430 -1431 -1433 -1434 -1435 -1436 -1437 -1438 -1439 -428 -1014"/>
    </vehicle>
    <vehicle id="135" depart="92.95">
        <route edges="1577 1576 1570 1569 504 503 -1232 -1515 -1551 -1579 -1553 -1233 -444 -445 -446 -447 -1491 -1147 -425 -426 -427 -1554 -1555 -1556 -430 -431 -432 -433 -434 -435 -436 -559 -561 -216"/>
    </vehicle>
    <vehicle id="136" depart="93.64">
        <route edges="1020 1021 -1019 -1388 -1389 -1390 -297 -1487 -1488 -1145 -1489 -1490 -1471 -1472 -1473 -1482 -1491 -1147 -425 -426 -427 -1554 -1555 -1556 1549 1356 1355 1354 1353 1352 1351 1350 1349 1348 1347 1346 706 705"/>
    </vehicle>
    <vehicle id="137" depart="94.32">
        <route edges="-1310 -1311 -1312 -1313 -170 -171 -172 -467 -468 -469 -1169 -412 -413 -414 -407 -29 -1256"/>
    </vehicle>
    <vehicle id="138" depart="95.01">
        <route edges="-1243 -441 -442 -1141 -1546 -1547 -1548 -423 -424 -420 -421 -422 -1387 -1388 -1389 -1390 -297 -650 -651 -652 -653 -654 1577 1576 1570 1569 504 503 -1232 -1515 -1230 -717 -718 -719 -720 -721 -722 -728 -729"/>
    </vehicle>
    <vehicle id="139" depart="95.70">
        <route edges="-186 -1322 -1550 -423 -424 -420 -421 -422 -1387 -1388 -1389 -1390 -297 -650 -651 -652 -653 -654 1577 1576 1570 1569 504 503 -1232 -1515 -1230 -717 -718 -719 -720 -721 -713 -839 -840"/>
    </vehicle>
    <vehicle id="141" depart="97.08">
        <route edges="-940 -941 941 940 939 938 937 936 935 934 933 932 931 -927 -429 -1275 -1133 -1134 -1135 -1136 -1137 -1138 -1139 -1140 -1141 -1546 -1547 -1548 -423 -424 -420 -421 -422 -1387 -1388 -1389 -1390 -297 -650 -651 -652 -653 -654 -92 -93 -1357 -1578 -802 -803 -804 -130 -1580 -1581"/>
    </vehicle>
    <vehicle id="142" depart="97.77">
        <route edges="-634 -1017 -18 -19 -1519 -35 -27 -28 -29 -30 -446 -447 -1491 -1147 -425 -426 -427 -1554 -1555 -1556 -430 -431 -432 -433 -434 -435 -436 -437 -1271 512 511 510"/>
    </vehicle>
    <vehicle id="144" depart="99.14">
        <route edges="-497 -1371 605 604 603 -142 -143 -487 -488 139 -1313 -170"/>
    </vehicle>
    <vehicle id="145" depart="99.83">
        <route edges="-1006 -1326 -905 -895 -896 -330 -442 -1141 -1549 -658 -659 -660 -661 -662 -663 -664 -665 -603 1279 1278 -1373 1375"/>
    </vehicle>
    <vehicle id="146" depart="100.52">
        <route edges="-952 937 936 935 934 933 932 931 -927 -429 -1275 -1133 -1134 -1135 -1136 -1137 -1138 -1139 -1140 -1141 -1546 -1547 -1548 -423 -424 -420 -421 -422 -1387 -1388 -1389 -1390 -297 -650 -651 -652 -653 -654 -92 -93 -1357 -1578"/>
    </vehicle>
    <vehicle id="147" depart="101.21">
        <route edges="129 128 127 -1488 -1145 -1489 -1490 -1471 -1472 -1473 -102 -103 -104 -105 -1467 -1468 -1515 -1230 -717 -718 -719 -720 -721 -722 -728 -729 -730 797 -726"/>
    </vehicle>
    <vehicle id="148" depart="101.90">
        <route edges="-505 -506 -507 -508 -509 -510 -511 -512 -1133 -1134 -1135 -1136 -1137 -1138 -1139 -1140 -1141 -1546 -1547 -1548 -423 -424 -420 -421 -422 -1387 -1388 -1389 -1390 -297 -1487 -1488 -1145 -1489 -1490 -1471 -1472 -1473 -102"/>
    </vehicle>
    <vehicle id="149" depart="102.59">