<?xml version="1.0" encoding="UTF-8"?>

<!-- generated on 2024-08-02 12:47:24.179317 by randomTrips.py v1_20_0+0002-343658e7c64
<configuration>
    <net-file value="Bari.net.xml"/>
    <route-file value="traffic.rou.xml"/>
    <end value="1000.0"/>
    <insertion-density value="50.0"/>
</configuration>
-->

<routes xmlns:xsi="http://www.w3.org/2001/XMLSchema-instance" xsi:noNamespaceSchemaLocation="http://sumo.dlr.de/xsd/routes_file.xsd">
    <trip id="0" depart="0.00" from="-960" to="-1055"/>
    <trip id="1" depart="0.69" from="-191" to="-1497"/>
    <trip id="2" depart="1.38" from="1276" to="1004"/>
    <trip id="3" depart="2.07" from="457" to="-1194"/>
    <trip id="4" depart="2.75" from="-494" to="-1069"/>
    <trip id="5" depart="3.44" from="-1502" to="-627"/>
    <trip id="6" depart="4.13" from="-1056" to="-144"/>
    <trip id="7" depart="4.82" from="-987" to="-711"/>
    <trip id="8" depart="5.51" from="-1506" to="-803"/>
    <trip id="9" depart="6.20" from="1553" to="-1011"/>
    <trip id="10" depart="6.88" from="1542" to="1089"/>
    <trip id="11" depart="7.57" from="-328" to="-1346"/>
    <trip id="12" depart="8.26" from="765" to="-29"/>
    <trip id="13" depart="8.95" from="-1206" to="-1217"/>
    <trip id="14" depart="9.64" from="265" to="-839"/>
    <trip id="15" depart="10.33" from="1545" to="1191"/>
    <trip id="16" depart="11.02" from="-738" to="853"/>
    <trip id="17" depart="11.70" from="-409" to="-726"/>
    <trip id="18" depart="12.39" from="200" to="-869"/>
    <trip id="19" depart="13.08" from="308" to="-78"/>
    <trip id="20" depart="13.77" from="1166" to="-1103"/>
    <trip id="21" depart="14.46" from="-1522" to="-198"/>
    <trip id="22" depart="15.15" from="-1176" to="-1514"/>
    <trip id="23" depart="15.84" from="-1231" to="-173"/>
    <trip id="24" depart="16.52" from="-95" to="-346"/>
    <trip id="25" depart="17.21" from="-394" to="-1468"/>
    <trip id="26" depart="17.90" from="-176" to="70"/>
    <trip id="27" depart="18.59" from="-983" to="-849"/>
    <trip id="28" depart="19.28" from="-1394" to="1190"/>
    <trip id="29" depart="19.97" from="-1379" to="-373"/>
    <trip id="30" depart="20.65" from="95" to="-914"/>
    <trip id="31" depart="21.34" from="-781" to="1043"/>
    <trip id="32" depart="22.03" from="232" to="1385"/>
    <trip id="33" depart="22.72" from="-1524" to="-1072"/>
    <trip id="34" depart="23.41" from="-272" to="-1590"/>
    <trip id="35" depart="24.10" from="-1489" to="719"/>
    <trip id="36" depart="24.79" from="355" to="-244"/>
    <trip id="37" depart="25.47" from="-998" to="-406"/>
    <trip id="38" depart="26.16" from="559" to="-528"/>
    <trip id="39" depart="26.85" from="-172" to="-1541"/>
    <trip id="40" depart="27.54" from="-79" to="-1579"/>
    <trip id="41" depart="28.23" from="-84" to="483"/>
    <trip id="42" depart="28.92" from="-449" to="-149"/>
    <trip id="43" depart="29.61" from="98" to="-635"/>
    <trip id="44" depart="30.29" from="-120" to="-1106"/>
    <trip id="45" depart="30.98" from="-1250" to="-888"/>
    <trip id="46" depart="31.67" from="1507" to="-456"/>
    <trip id="47" depart="32.36" from="-1141" to="-379"/>
    <trip id="48" depart="33.05" from="977" to="-673"/>
    <trip id="49" depart="33.74" from="832" to="301"/>
    <trip id="50" depart="34.42" from="-1023" to="1162"/>
    <trip id="51" depart="35.11" from="1097" to="-692"/>
    <trip id="52" depart="35.80" from="-176" to="-918"/>
    <trip id="53" depart="36.49" from="-1258" to="-48"/>
    <trip id="54" depart="37.18" from="-558" to="769"/>
    <trip id="55" depart="37.87" from="354" to="-1580"/>
    <trip id="56" depart="38.56" from="-658" to="-1394"/>
    <trip id="57" depart="39.24" from="534" to="338"/>
    <trip id="58" depart="39.93" from="-237" to="-911"/>
    <trip id="59" depart="40.62" from="-889" to="-1338"/>
    <trip id="60" depart="41.31" from="1374" to="-70"/>
    <trip id="61" depart="42.00" from="1450" to="-676"/>
    <trip id="62" depart="42.69" from="-1000" to="-265"/>
    <trip id="63" depart="43.38" from="-1040" to="64"/>
    <trip id="64" depart="44.06" from="365" to="196"/>
    <trip id="65" depart="44.75" from="-254" to="-1132"/>
    <trip id="66" depart="45.44" from="364" to="727"/>
    <trip id="67" depart="46.13" from="-119" to="-581"/>
    <trip id="68" depart="46.82" from="-1153" to="1337"/>
    <trip id="69" depart="47.51" from="1381" to="-1285"/>
    <trip id="70" depart="48.19" from="-603" to="-721"/>
    <trip id="71" depart="48.88" from="-172" to="347"/>
    <trip id="72" depart="49.57" from="-496" to="-1473"/>
    <trip id="73" depart="50.26" from="-745" to="1191"/>
    <trip id="74" depart="50.95" from="-1465" to="-239"/>
    <trip id="75" depart="51.64" from="966" to="-938"/>
    <trip id="76" depart="52.33" from="-526" to="-650"/>
    <trip id="77" depart="53.01" from="-1280" to="-15"/>
    <trip id="78" depart="53.70" from="-323" to="-801"/>
    <trip id="79" depart="54.39" from="-1526" to="-1491"/>
    <trip id="80" depart="55.08" from="-1157" to="-898"/>
    <trip id="81" depart="55.77" from="-1524" to="510"/>
    <trip id="82" depart="56.46" from="302" to="-1158"/>
    <trip id="83" depart="57.15" from="-155" to="-99"/>
    <trip id="84" depart="57.83" from="-1494" to="-1294"/>
    <trip id="85" depart="58.52" from="670" to="-766"/>
    <trip id="86" depart="59.21" from="-599" to="1420"/>
    <trip id="87" depart="59.90" from="1549" to="-1423"/>
    <trip id="88" depart="60.59" from="-1222" to="-473"/>
    <trip id="89" depart="61.28" from="-497" to="-543"/>
    <trip id="90" depart="61.96" from="1253" to="-999"/>
    <trip id="91" depart="62.65" from="935" to="-122"/>
    <trip id="92" depart="63.34" from="-454" to="-295"/>
    <trip id="93" depart="64.03" from="308" to="-1545"/>
    <trip id="94" depart="64.72" from="-1436" to="-508"/>
    <trip id="95" depart="65.41" from="-492" to="-174"/>
    <trip id="96" depart="66.10" from="-1578" to="619"/>
    <trip id="97" depart="66.78" from="-537" to="302"/>
    <trip id="98" depart="67.47" from="-769" to="-1115"/>
    <trip id="99" depart="68.16" from="99" to="204"/>
    <trip id="100" depart="68.85" from="821" to="632"/>
    <trip id="101" depart="69.54" from="269" to="-137"/>
    <trip id="102" depart="70.23" from="-629" to="-1478"/>
    <trip id="103" depart="70.92" from="-451" to="-1134"/>
    <trip id="104" depart="71.60" from="-41" to="936"/>
    <trip id="105" depart="72.29" from="-172" to="1419"/>
    <trip id="106" depart="72.98" from="-56" to="-458"/>
    <trip id="107" depart="73.67" from="766" to="977"/>
    <trip id="108" depart="74.36" from="-779" to="1159"/>
    <trip id="109" depart="75.05" from="-1360" to="-210"/>
    <trip id="110" depart="75.73" from="813" to="-784"/>
    <trip id="111" depart="76.42" from="-750" to="1277"/>
    <trip id="112" depart="77.11" from="-1127" to="-794"/>
    <trip id="113" depart="77.80" from="-662" to="268"/>
    <trip id="114" depart="78.49" from="-1367" to="792"/>
    <trip id="115" depart="79.18" from="-1176" to="-141"/>
    <trip id="116" depart="79.87" from="-861" to="1001"/>
    <trip id="117" depart="80.55" from="-1544" to="-1266"/>
    <trip id="118" depart="81.24" from="450" to="-1540"/>
    <trip id="119" depart="81.93" from="-860" to="-87"/>
    <trip id="120" depart="82.62" from="-488" to="-793"/>
    <trip id="121" depart="83.31" from="-71" to="688"/>
    <trip id="122" depart="84.00" from="-1472" to="1153"/>
    <trip id="123" depart="84.69" from="-1550" to="-406"/>
    <trip id="124" depart="85.37" from="1068" to="-217"/>
    <trip id="125" depart="86.06" from="-273" to="1288"/>
    <trip id="126" depart="86.75" from="-116" to="-527"/>
    <trip id="127" depart="87.44" from="983" to="978"/>
    <trip id="128" depart="88.13" from="-1161" to="-1477"/>
    <trip id="129" depart="88.82" from="-172" to="671"/>
    <trip id="130" depart="89.50" from="376" to="367"/>
    <trip id="131" depart="90.19" from="-391" to="-1350"/>
    <trip id="132" depart="90.88" from="210" to="1106"/>
    <trip id="133" depart="91.57" from="-893" to="94"/>
    <trip id="134" depart="92.26" from="-994" to="-1014"/>
    <trip id="135" depart="92.95" from="1577" to="-216"/>
    <trip id="136" depart="93.64" from="1020" to="705"/>
    <trip id="137" depart="94.32" from="-1310" to="-1256"/>
    <trip id="138" depart="95.01" from="-1243" to="-729"/>
    <trip id="139" depart="95.70" from="-186" to="-840"/>
    <trip id="140" depart="96.39" from="1210" to="-1452"/>
    <trip id="141" depart="97.08" from="-940" to="-1581"/>
    <trip id="142" depart="97.77" from="-634" to="510"/>
    <trip id="143" depart="98.46" from="239" to="-1208"/>
    <trip id="144" depart="99.14" from="-497" to="-170"/>
    <trip id="145" depart="99.83" from="-1006" to="1375"/>
    <trip id="146" depart="100.52" from="-952" to="-1578"/>
    <trip id="147" depart="101.21" from="129" to="-726"/>
    <trip id="148" depart="101.90" from="-505" to="-102"/>
    <trip id="149" depart="102.59" from="-1165" to="389"/>
    <trip id="150" depart="103.27" from="503" to="-712"/>
    <trip id="151" depart="103.96" from="211" to="-790"/>
    <trip id="152" depart="104.65" from="-1347" to="-1283"/>
    <trip id="153" depart="105.34" from="-256" to="485"/>
    <trip id="154" depart="106.03" from="1515" to="301"/>
    <trip id="155" depart="106.72" from="480" to="-147"/>
    <trip id="156" depart="107.41" from="-1578" to="-1228"/>
    <trip id="157" depart="108.09" from="1466" to="405"/>
    <trip id="158" depart="108.78" from="-461" to="-872"/>
    <trip id="159" depart="109.47" from="-136" to="641"/>
    <trip id="160" depart="110.16" from="317" to="891"/>
    <trip id="161" depart="110.85" from="1564" to="386"/>
    <trip id="162" depart="111.54" from="-1052" to="1222"/>
    <trip id="163" depart="112.23" from="-310" to="666"/>
    <trip id="164" depart="112.91" from="1536" to="315"/>
    <trip id="165" depart="113.60" from="1564" to="-1589"/>
    <trip id="166" depart="114.29" from="1495" to="-1239"/>
    <trip id="167" depart="114.98" from="346" to="280"/>
    <trip id="168" depart="115.67" from="-151" to="1563"/>
    <trip id="169" depart="116.36" from="-57" to="-227"/>
    <trip id="170" depart="117.04" from="1514" to="-1504"/>
    <trip id="171" depart="117.73" from="-105" to="-1428"/>
    <trip id="172" depart="118.42" from="-300" to="315"/>
    <trip id="173" depart="119.11" from="8" to="-175"/>
    <trip id="174" depart="119.80" from="-968" to="-413"/>
    <trip id="175" depart="120.49" from="926" to="-690"/>
    <trip id="176" depart="121.18" from="693" to="-1256"/>
    <trip id="177" depart="121.86" from="825" to="-1394"/>
    <trip id="178" depart="122.55" from="790" to="-1585"/>
    <trip id="179" depart="123.24" from="-1246" to="-48"/>
    <trip id="180" depart="123.93" from="1252" to="-242"/>
    <trip id="181" depart="124.62" from="-883" to="-639"/>
    <trip id="182" depart="125.31" from="-421" to="-778"/>
    <trip id="183" depart="126.00" from="-1591" to="1118"/>
    <trip id="184" depart="126.68" from="-1002" to="630"/>
    <trip id="185" depart="127.37" from="-743" to="1160"/>
    <trip id="186" depart="128.06" from="1290" to="-992"/>
    <trip id="187" depart="128.75" from="-380" to="-1156"/>
    <trip id="188" depart="129.44" from="1036" to="-278"/>
    <trip id="189" depart="130.13" from="-27" to="234"/>
    <trip id="190" depart="130.81" from="1214" to="-217"/>
    <trip id="191" depart="131.50" from="-258" to="-43"/>
    <trip id="192" depart="132.19" from="-454" to="-209"/>
    <trip id="193" depart="132.88" from="-1295" to="-452"/>
    <trip id="194" depart="133.57" from="7" to="1005"/>
    <trip id="195" depart="134.26" from="496" to="-862"/>
    <trip id="196" depart="134.95" from="-241" to="-718"/>
    <trip id="197" depart="135.63" from="-10" to="-192"/>
    <trip id="198" depart="136.32" from="-509" to="-785"/>
    <trip id="199" depart="137.01" from="-997" to="-54"/>
    <trip id="200" depart="137.70" from="-535" to="-1478"/>
    <trip id="201" depart="138.39" from="-6" to="498"/>
    <trip id="202" depart="139.08" from="1515" to="-1376"/>
    <trip id="203" depart="139.77" from="-1187" to="-646"/>
    <trip id="204" depart="140.45" from="-939" to="-287"/>
    <trip id="205" depart="141.14" from="1580" to="1285"/>
    <trip id="206" depart="141.83" from="1071" to="-15"/>
    <trip id="207" depart="142.52" from="-1460" to="-1053"/>
    <trip id="208" depart="143.21" from="-1569" to="-559"/>
    <trip id="209" depart="143.90" from="271" to="-1161"/>
    <trip id="210" depart="144.58" from="-479" to="-895"/>
    <trip id="211" depart="145.27" from="-1449" to="1086"/>
    <trip id="212" depart="145.96" from="-646" to="-1536"/>
    <trip id="213" depart="146.65" from="1" to="-101"/>
    <trip id="214" depart="147.34" from="1334" to="1373"/>
    <trip id="215" depart="148.03" from="-1242" to="-461"/>
    <trip id="216" depart="148.72" from="-1406" to="783"/>
    <trip id="217" depart="149.40" from="-70" to="-1111"/>
    <trip id="218" depart="150.09" from="-1577" to="235"/>
    <trip id="219" depart="150.78" from="-562" to="1509"/>
    <trip id="220" depart="151.47" from="1053" to="940"/>
    <trip id="221" depart="152.16" from="-862" to="745"/>
    <trip id="222" depart="152.85" from="456" to="-857"/>
    <trip id="223" depart="153.54" from="1213" to="-626"/>
    <trip id="224" depart="154.22" from="203" to="-718"/>
    <trip id="225" depart="154.91" from="478" to="1259"/>
    <trip id="226" depart="155.60" from="-601" to="-1572"/>
    <trip id="227" depart="156.29" from="-1573" to="-909"/>
    <trip id="228" depart="156.98" from="1381" to="-657"/>
    <trip id="229" depart="157.67" from="-925" to="-166"/>
    <trip id="230" depart="158.35" from="-1170" to="-189"/>
    <trip id="231" depart="159.04" from="-185" to="-255"/>
    <trip id="232" depart="159.73" from="-747" to="-1304"/>
    <trip id="233" depart="160.42" from="-153" to="1076"/>
    <trip id="234" depart="161.11" from="118" to="-1144"/>
    <trip id="235" depart="161.80" from="-465" to="-706"/>
    <trip id="236" depart="162.49" from="-481" to="-1462"/>
    <trip id="237" depart="163.17" from="-49" to="508"/>
    <trip id="238" depart="163.86" from="-839" to="1082"/>
    <trip id="239" depart="164.55" from="296" to="1353"/>
    <trip id="240" depart="165.24" from="-412" to="-1010"/>
    <trip id="241" depart="165.93" from="-352" to="1291"/>
    <trip id="242" depart="166.62" from="279" to="769"/>
    <trip id="243" depart="167.31" from="-487" to="1276"/>
    <trip id="244" depart="167.99" from="-76" to="-838"/>
    <trip id="245" depart="168.68" from="-1506" to="-149"/>
    <trip id="246" depart="169.37" from="-521" to="-1067"/>
    <trip id="247" depart="170.06" from="-32" to="1013"/>
    <trip id="248" depart="170.75" from="-458" to="-1367"/>
    <trip id="249" depart="171.44" from="-589" to="-1283"/>
    <trip id="250" depart="172.12" from="-912" to="-1062"/>
    <trip id="251" depart="172.81" from="-438" to="-752"/>
    <trip id="252" depart="173.50" from="-1057" to="-922"/>
    <trip id="253" depart="174.19" from="-1313" to="-533"/>
    <trip id="254" depart="174.88" from="-1109" to="-372"/>
    <trip id="255" depart="175.57" from="-149" to="-271"/>
    <trip id="256" depart="176.26" from="1372" to="-372"/>
    <trip id="257" depart="176.94" from="1336" to="197"/>
    <trip id="258" depart="177.63" from="-1585" to="-1181"/>
    <trip id="259" depart="178.32" from="-1040" to="-70"/>
    <trip id="260" depart="179.01" from="996" to="-315"/>
    <trip id="261" depart="179.70" from="-987" to="1413"/>
    <trip id="262" depart="180.39" from="-990" to="1293"/>
    <trip id="263" depart="181.08" from="725" to="-1440"/>
    <trip id="264" depart="181.76" from="-1042" to="-1337"/>
    <trip id="265" depart="182.45" from="-1293" to="-990"/>
    <trip id="266" depart="183.14" from="-794" to="-1487"/>
    <trip id="267" depart="183.83" from="1155" to="1355"/>
    <trip id="268" depart="184.52" from="-1388" to="-845"/>
    <trip id="269" depart="185.21" from="132" to="-1253"/>
    <trip id="270" depart="185.89" from="1581" to="8"/>
    <trip id="271" depart="186.58" from="-1245" to="-1056"/>
    <trip id="272" depart="187.27" from="-265" to="1005"/>
    <trip id="273" depart="187.96" from="772" to="-408"/>
    <trip id="274" depart="188.65" from="1203" to="-1169"/>
    <trip id="275" depart="189.34" from="1118" to="-888"/>
    <trip id="276" depart="190.03" from="-1233" to="1379"/>
    <trip id="277" depart="190.71" from="272" to="-828"/>
    <trip id="278" depart="191.40" from="-1280" to="933"/>
    <trip id="279" depart="192.09" from="1475" to="-309"/>
    <trip id="280" depart="192.78" from="-506" to="-357"/>
    <trip id="281" depart="193.47" from="-668" to="-299"/>
    <trip id="282" depart="194.16" from="270" to="1579"/>
    <trip id="283" depart="194.85" from="-1240" to="792"/>
    <trip id="284" depart="195.53" from="-95" to="1596"/>
    <trip id="285" depart="196.22" from="1180" to="-481"/>
    <trip id="286" depart="196.91" from="1268" to="801"/>
    <trip id="287" depart="197.60" from="-182" to="153"/>
    <trip id="288" depart="198.29" from="-742" to="-576"/>
    <trip id="289" depart="198.98" from="-521" to="1198"/>
    <trip id="290" depart="199.66" from="-179" to="265"/>
    <trip id="291" depart="200.35" from="203" to="-1194"/>
    <trip id="292" depart="201.04" from="377" to="-1536"/>
    <trip id="293" depart="201.73" from="-58" to="-851"/>
    <trip id="294" depart="202.42" from="-41" to="-1066"/>
    <trip id="295" depart="203.11" from="273" to="-140"/>
    <trip id="296" depart="203.80" from="-1490" to="1499"/>
    <trip id="297" depart="204.48" from="-328" to="369"/>
    <trip id="298" depart="205.17" from="1159" to="-17"/>
    <trip id="299" depart="205.86" from="-1021" to="735"/>
    <trip id="300" depart="206.55" from="-119" to="1161"/>
    <trip id="301" depart="207.24" from="-634" to="132"/>
    <trip id="302" depart="207.93" from="1118" to="-930"/>
    <trip id="303" depart="208.62" from="-64" to="1479"/>
    <trip id="304" depart="209.30" from="-1206" to="-1494"/>
    <trip id="305" depart="209.99" from="1121" to="-229"/>
    <trip id="306" depart="210.68" from="-831" to="-555"/>
    <trip id="307" depart="211.37" from="-727" to="-462"/>
    <trip id="308" depart="212.06" from="13" to="-279"/>
    <trip id="309" depart="212.75" from="1161" to="-1598"/>
    <trip id="310" depart="213.43" from="-1582" to="-1268"/>
    <trip id="311" depart="214.12" from="-1441" to="-1265"/>
    <trip id="312" depart="214.81" from="-738" to="1346"/>
    <trip id="313" depart="215.50" from="-1425" to="-1484"/>
    <trip id="314" depart="216.19" from="-625" to="118"/>
    <trip id="315" depart="216.88" from="891" to="-664"/>
    <trip id="316" depart="217.57" from="-206" to="-1224"/>
    <trip id="317" depart="218.25" from="-1448" to="-1504"/>
    <trip id="318" depart="218.94" from="-1414" to="-103"/>
    <trip id="319" depart="219.63" from="-733" to="-165"/>
    <trip id="320" depart="220.32" from="851" to="-729"/>
    <trip id="321" depart="221.01" from="115" to="-128"/>
    <trip id="322" depart="221.70" from="334" to="-594"/>
    <trip id="323" depart="222.39" from="348" to="-773"/>
    <trip id="324" depart="223.07" from="-592" to="-490"/>
    <trip id="325" depart="223.76" from="-1423" to="-1116"/>
    <trip id="326" depart="224.45" from="702" to="-564"/>
    <trip id="327" depart="225.14" from="1588" to="-415"/>
    <trip id="328" depart="225.83" from="-1163" to="-893"/>
    <trip id="329" depart="226.52" from="-1119" to="-1328"/>
    <trip id="330" depart="227.20" from="-792" to="-224"/>
    <trip id="331" depart="227.89" from="963" to="-1261"/>
    <trip id="332" depart="228.58" from="1379" to="-843"/>
    <trip id="333" depart="229.27" from="1504" to="-1500"/>
    <trip id="334" depart="229.96" from="-71" to="-511"/>
    <trip id="335" depart="230.65" from="-536" to="300"/>
    <trip id="336" depart="231.34" from="952" to="-227"/>
    <trip id="337" depart="232.02" from="-910" to="-85"/>
    <trip id="338" depart="232.71" from="1284" to="73"/>
    <trip id="339" depart="233.40" from="-1480" to="-1472"/>
    <trip id="340" depart="234.09" from="1008" to="-1349"/>
    <trip id="341" depart="234.78" from="-14" to="-1167"/>
    <trip id="342" depart="235.47" from="-1004" to="-511"/>
    <trip id="343" depart="236.16" from="-859" to="-200"/>
    <trip id="344" depart="236.84" from="-153" to="1114"/>
    <trip id="345" depart="237.53" from="1161" to="-518"/>
    <trip id="346" depart="238.22" from="1110" to="62"/>
    <trip id="347" depart="238.91" from="1496" to="-882"/>
    <trip id="348" depart="239.60" from="101" to="671"/>
    <trip id="349" depart="240.29" from="-5" to="-710"/>
    <trip id="350" depart="240.97" from="-982" to="519"/>
    <trip id="351" depart="241.66" from="196" to="-1159"/>
    <trip id="352" depart="242.35" from="-1383" to="-231"/>
    <trip id="353" depart="243.04" from="133" to="-762"/>
    <trip id="354" depart="243.73" from="-217" to="-1276"/>
    <trip id="355" depart="244.42" from="1114" to="1093"/>
    <trip id="356" depart="245.11" from="705" to="-616"/>
    <trip id="357" depart="245.79" from="-645" to="-1178"/>
    <trip id="358" depart="246.48" from="-1084" to="-475"/>
    <trip id="359" depart="247.17" from="-287" to="-1549"/>
    <trip id="360" depart="247.86" from="-1202" to="794"/>
    <trip id="361" depart="248.55" from="214" to="-775"/>
    <trip id="362" depart="249.24" from="727" to="996"/>
    <trip id="363" depart="249.92" from="1070" to="-1593"/>
    <trip id="364" depart="250.61" from="-1085" to="1297"/>
    <trip id="365" depart="251.30" from="-595" to="-940"/>
    <trip id="366" depart="251.99" from="573" to="-14"/>
    <trip id="367" depart="252.68" from="-841" to="-903"/>
    <trip id="368" depart="253.37" from="-641" to="-1205"/>
    <trip id="369" depart="254.06" from="-345" to="-283"/>
    <trip id="370" depart="254.74" from="1064" to="278"/>
    <trip id="371" depart="255.43" from="-303" to="1072"/>
    <trip id="372" depart="256.12" from="-216" to="722"/>
    <trip id="373" depart="256.81" from="1570" to="-721"/>
    <trip id="374" depart="257.50" from="-56" to="-244"/>
    <trip id="375" depart="258.19" from="-289" to="832"/>
    <trip id="376" depart="258.88" from="-458" to="-644"/>
    <trip id="377" depart="259.56" from="942" to="-96"/>
    <trip id="378" depart="260.25" from="-752" to="-439"/>
    <trip id="379" depart="260.94" from="-1430" to="-338"/>
    <trip id="380" depart="261.63" from="1351" to="-883"/>
    <trip id="381" depart="262.32" from="1358" to="-1452"/>
    <trip id="382" depart="263.01" from="-766" to="637"/>
    <trip id="383" depart="263.69" from="-526" to="109"/>
    <trip id="384" depart="264.38" from="-1282" to="853"/>
    <trip id="385" depart="265.07" from="-889" to="-1526"/>
    <trip id="386" depart="265.76" from="-1369" to="-723"/>
    <trip id="387" depart="266.45" from="-772" to="-1209"/>
    <trip id="388" depart="267.14" from="959" to="559"/>
    <trip id="389" depart="267.83" from="-573" to="-126"/>
    <trip id="390" depart="268.51" from="206" to="-61"/>
    <trip id="391" depart="269.20" from="1207" to="-633"/>
    <trip id="392" depart="269.89" from="-188" to="202"/>
    <trip id="393" depart="270.58" from="924" to="-1536"/>
    <trip id="394" depart="271.27" from="-770" to="-382"/>
    <trip id="395" depart="271.96" from="609" to="-632"/>
    <trip id="396" depart="272.65" from="366" to="315"/>
    <trip id="397" depart="273.33" from="-193" to="1468"/>
    <trip id="398" depart="274.02" from="-48" to="68"/>
    <trip id="399" depart="274.71" from="-671" to="1574"/>
    <trip id="400" depart="275.40" from="-206" to="-214"/>
    <trip id="401" depart="276.09" from="-844" to="985"/>
    <trip id="402" depart="276.78" from="-637" to="-1326"/>
    <trip id="403" depart="277.46" from="-743" to="-305"/>
    <trip id="404" depart="278.15" from="-771" to="-707"/>
    <trip id="405" depart="278.84" from="-560" to="-26"/>
    <trip id="406" depart="279.53" from="-1433" to="1088"/>
    <trip id="407" depart="280.22" from="-809" to="-1516"/>
    <trip id="408" depart="280.91" from="1440" to="-1099"/>
    <trip id="409" depart="281.60" from="1296" to="1109"/>
    <trip id="410" depart="282.28" from="1565" to="-387"/>
    <trip id="411" depart="282.97" from="1021" to="1574"/>
    <trip id="412" depart="283.66" from="926" to="-602"/>
    <trip id="413" depart="284.35" from="-108" to="-621"/>
    <trip id="414" depart="285.04" from="-851" to="336"/>
    <trip id="415" depart="285.73" from="351" to="-490"/>
    <trip id="416" depart="286.42" from="-717" to="-524"/>
    <trip id="417" depart="287.10" from="1221" to="-433"/>
    <trip id="418" depart="287.79" from="-997" to="-1341"/>
    <trip id="419" depart="288.48" from="-593" to="830"/>
    <trip id="420" depart="289.17" from="-324" to="1070"/>
    <trip id="421" depart="289.86" from="-987" to="265"/>
    <trip id="422" depart="290.55" from="276" to="282"/>
    <trip id="423" depart="291.23" from="-411" to="-249"/>
    <trip id="424" depart="291.92" from="1212" to="1332"/>
    <trip id="425" depart="292.61" from="347" to="-1081"/>
    <trip id="426" depart="293.30" from="-1151" to="-898"/>
    <trip id="427" depart="293.99" from="606" to="982"/>
    <trip id="428" depart="294.68" from="1306" to="-479"/>
    <trip id="429" depart="295.37" from="-1226" to="-901"/>
    <trip id="430" depart="296.05" from="347" to="-497"/>
    <trip id="431" depart="296.74" from="1127" to="506"/>
    <trip id="432" depart="297.43" from="-1098" to="1495"/>
    <trip id="433" depart="298.12" from="-227" to="-365"/>
    <trip id="434" depart="298.81" from="-1339" to="-678"/>
    <trip id="435" depart="299.50" from="-798" to="1478"/>
    <trip id="436" depart="300.19" from="-1391" to="-1175"/>
    <trip id="437" depart="300.87" from="344" to="-870"/>
    <trip id="438" depart="301.56" from="-1555" to="559"/>
    <trip id="439" depart="302.25" from="-1329" to="-532"/>
    <trip id="440" depart="302.94" from="-159" to="-156"/>
    <trip id="441" depart="303.63" from="-1019" to="152"/>
    <trip id="442" depart="304.32" from="485" to="1008"/>
    <trip id="443" depart="305.00" from="-1368" to="-493"/>
    <trip id="444" depart="305.69" from="-34" to="-80"/>
    <trip id="445" depart="306.38" from="-959" to="-46"/>
    <trip id="446" depart="307.07" from="-1579" to="229"/>
    <trip id="447" depart="307.76" from="-1460" to="-384"/>
    <trip id="448" depart="308.45" from="-623" to="-1522"/>
    <trip id="449" depart="309.14" from="-81" to="-775"/>
    <trip id="450" depart="309.82" from="96" to="-208"/>
    <trip id="451" depart="310.51" from="9" to="-960"/>
    <trip id="452" depart="311.20" from="-190" to="-755"/>
    <trip id="453" depart="311.89" from="1107" to="1263"/>
    <trip id="454" depart="312.58" from="-1107" to="-843"/>
    <trip id="455" depart="313.27" from="-650" to="507"/>
    <trip id="456" depart="313.96" from="-212" to="1504"/>
    <trip id="457" depart="314.64" from="-885" to="-320"/>
    <trip id="458" depart="315.33" from="-951" to="-873"/>
    <trip id="459" depart="316.02" from="1089" to="1163"/>
    <trip id="460" depart="316.71" from="1003" to="209"/>
    <trip id="461" depart="317.40" from="-93" to="505"/>
    <trip id="462" depart="318.09" from="-980" to="-233"/>
    <trip id="463" depart="318.77" from="-531" to="-785"/>
    <trip id="464" depart="319.46" from="1260" to="-1203"/>
    <trip id="465" depart="320.15" from="-230" to="1276"/>
    <trip id="466" depart="320.84" from="-1405" to="-1294"/>
    <trip id="467" depart="321.53" from="-745" to="837"/>
    <trip id="468" depart="322.22" from="-727" to="571"/>
    <trip id="469" depart="322.91" from="203" to="-1567"/>
    <trip id="470" depart="323.59" from="1596" to="-572"/>
    <trip id="471" depart="324.28" from="1544" to="1270"/>
    <trip id="472" depart="324.97" from="-324" to="-1254"/>
    <trip id="473" depart="325.66" from="790" to="-131"/>
    <trip id="474" depart="326.35" from="799" to="3"/>
    <trip id="475" depart="327.04" from="1233" to="922"/>
    <trip id="476" depart="327.73" from="8" to="152"/>
    <trip id="477" depart="328.41" from="-384" to="1469"/>
    <trip id="478" depart="329.10" from="-1029" to="-691"/>
    <trip id="479" depart="329.79" from="-56" to="-998"/>
    <trip id="480" depart="330.48" from="1070" to="-795"/>
    <trip id="481" depart="331.17" from="1589" to="709"/>
    <trip id="482" depart="331.86" from="-1246" to="-1516"/>
    <trip id="483" depart="332.54" from="-1053" to="406"/>
    <trip id="484" depart="333.23" from="-79" to="577"/>
    <trip id="485" depart="333.92" from="-1508" to="-1142"/>
    <trip id="486" depart="334.61" from="1593" to="527"/>
    <trip id="487" depart="335.30" from="-243" to="-43"/>
    <trip id="488" depart="335.99" from="-1320" to="726"/>
    <trip id="489" depart="336.68" from="-249" to="-598"/>
    <trip id="490" depart="337.36" from="-1224" to="449"/>
    <trip id="491" depart="338.05" from="-1313" to="-518"/>
    <trip id="492" depart="338.74" from="1066" to="1258"/>
    <trip id="493" depart="339.43" from="717" to="-450"/>
    <trip id="494" depart="340.12" from="1291" to="-1341"/>
    <trip id="495" depart="340.81" from="-48" to="-1221"/>
    <trip id="496" depart="341.50" from="-637" to="-43"/>
    <trip id="497" depart="342.18" from="735" to="-1076"/>
    <trip id="498" depart="342.87" from="-395" to="-496"/>
    <trip id="499" depart="343.56" from="727" to="274"/>
    <trip id="500" depart="344.25" from="-1228" to="1047"/>
    <trip id="501" depart="344.94" from="-756" to="894"/>
    <trip id="502" depart="345.63" from="-369" to="-410"/>
    <trip id="503" depart="346.31" from="-1435" to="-1271"/>
    <trip id="504" depart="347.00" from="266" to="-520"/>
    <trip id="505" depart="347.69" from="1019" to="-920"/>