<routes xmlns:xsi="http://www.w3.org/2001/XMLSchema-instance" xsi:noNamespaceSchemaLocation="http://sumo.dlr.de/xsd/routes_file.xsd">
    <vehicle depart="0.00" id="0" type="vehicle.mini.cooper_s">
        <route edges="-960 -105 -1467 -1468 -1515 -1230 -717 -718 -719 799 850 -116 -715 -709 -1055" />
    </vehicle>
    <vehicle depart="2.07" id="3" type="vehicle.tesla.cybertruck">
        <route edges="457 -490 -56 -57 -549 -550 1337 1336 451 450 449 -23 -24 -514 -515 -1194" />
    </vehicle>
    <vehicle depart="2.75" id="4" type="vehicle.tesla.cybertruck">
        <route edges="-494 140 457 -490 -491 -492 -580 -1069" />
    </vehicle>
    <vehicle depart="3.44" id="5" type="vehicle.chevrolet.impala">
        <route edges="-1502 -459 -676 -717 -718 -719 -720 -721 -713 -1224 -1225 -625 -626 -627" />
    </vehicle>
    <vehicle depart="4.13" id="6" type="vehicle.dodge.charger_police">
        <route edges="-1056 -409 -410 -688 -689 -1228 -1233 -444 -445 -446 -447 -1491 -1147 -425 -426 -427 -1554 -1555 -1556 -658 -659 -660 -661 -662 -663 -664 -665 -142 -143 -144" />
    </vehicle>
    <vehicle depart="4.82" id="7" type="vehicle.nissan.patrol">
        <route edges="-987 -974 -989 -213 -214 -225 -226 -227 -222 -223 -622 741 -160 -620 572 571 607 606 605 604 603 -142 -143 -144 -1316 -1317 -1318 -1319 406 405 -469 -1169 -412 -413 -414 -407 -408 -409 -410 -688 -689 -1228 1553 1579 1551 -1230 -717 -718 -719 -720 -721 -722 -728 -112 -711" />
    </vehicle>
    <vehicle depart="5.51" id="8" type="vehicle.mercedes.coupe">
        <route edges="-1506 -790 -791 -384 -385 -654 -92 -93 -1357 -1578 -802 -803" />
    </vehicle>
    <vehicle depart="6.20" id="9" type="vehicle.toyota.prius">
        <route edges="1553 1579 1551 1515 1468 1467 1469 -444 -445 -446 -447 -1491 -1147 -425 -426 -427 -1554 -1555 -1556 -430 -431 -432 -433 -434 -435 -436 -437 -1271 -370 -371 -372 -373 520 519 1450 1013 -1453 -1011" />
    </vehicle>
    <vehicle depart="6.88" id="10" type="vehicle.kawasaki.ninja">
        <route edges="1542 1540 -1135 -1136 -1137 -1138 -1139 -1140 -1141 -1549 -658 -659 -660 -661 -662 -663 -664 -665 -142 -143 -144 -1316 -1317 -173 1089" />
    </vehicle>
    <vehicle depart="7.57" id="11" type="vehicle.chevrolet.impala">
        <route edges="-328 -329 -330 -772 -440 -1245 -1246 -1247 -321 -359 -704 -705 -706 -1346" />
    </vehicle>
    <vehicle depart="8.95" id="13" type="vehicle.citroen.c3">
        <route edges="-1206 -1207 1204 12 -1217" />
    </vehicle>
    <vehicle depart="9.64" id="14" type="vehicle.tesla.model3">
        <route edges="265 748 -560 -561 -562 -563 -564 -565 -566 -567 -250 -251 -252 -659 -660 -661 -662 -181 -182 -183 -1319 406 405 -469 -1169 -412 -413 -414 -407 -408 -409 -410 -688 -689 -1228 1553 1579 1551 -1230 -717 -718 -719 -720 -721 -713 -839" />
    </vehicle>
    <vehicle depart="10.33" id="15" type="vehicle.audi.etron">
        <route edges="1545 -696 -697 -1051 -629 1225 -624 720 719 718 717 -1229 -1579 -1553 -1233 -1469 -1467 -1231 -503 -504 -1569 -545 -546 -1149 -1151 1332 543 542 541 -123 -1441 1192 1191" />
    </vehicle>
    <vehicle depart="11.70" id="17" type="vehicle.ford.mustang">
        <route edges="-409 -410 -688 -689 -1228 1553 1579 1551 -1230 -717 -718 -719 -720 -721 -722 -728 -729 -730 797 -726" />
    </vehicle>
    <vehicle depart="12.39" id="18" type="vehicle.citroen.c3">
        <route edges="200 -210 -211 -212 -213 -214 -225 -226 -227 -222 -223 -622 741 -160 -161 -162 1590 1575 1574 1573 -876 -869" />
    </vehicle>
    <vehicle depart="13.08" id="19" type="vehicle.citroen.c3">
        <route edges="308 276 275 274 273 272 271 270 -285 -422 -1387 -1388 -1389 -1390 -297 -650 -651 -652 -653 -654 1577 1576 1570 1569 504 503 -1232 -1515 -1230 -717 -718 -719 -720 -721 -713 -839 -840 -841 -842 -91 -72 -78" />
    </vehicle>
    <vehicle depart="13.77" id="20" type="vehicle.carlamotors.carlacola">
        <route edges="1166 1165 -1084 -1085 -1079 -1080 1511 1510 1509 1508 1101 -1103" />
    </vehicle>
    <vehicle depart="15.15" id="22" type="vehicle.audi.a2">
        <route edges="-1176 -1177 -26 -27 -28 -408 -409 -410 -688 -689 -1228 -1233 -1469 -1467 -1231 -503 -504 -1569 -1570 -1576 -1577 -1504 -1505 -1506 -1507 -1508 -1509 -1510 -1511 -1512 -1513 -1514" />
    </vehicle>
    <vehicle depart="15.84" id="23" type="vehicle.yamaha.yzf">
        <route edges="-1231 -1232 -1515 -1551 -1579 -1227 689 688 -1518 -1519 -1520 -1521 -1522 -1552 -448 -449 -450 -451 -1336 -1337 -463 -464 -138 40 -404 -1313 -1314 -1315 -1316 -1317 -173" />
    </vehicle>
    <vehicle depart="16.52" id="24" type="vehicle.volkswagen.t2">
        <route edges="-95 -1376 -1290 -16 -17 -18 -19 -1519 -35 -27 -28 -29 -30 -446 -447 -1491 -1147 -425 -426 -427 -1554 -1555 -1556 -430 -431 -432 -433 -345 -346" />
    </vehicle>
    <vehicle depart="17.21" id="25" type="vehicle.tesla.cybertruck">
        <route edges="-394 1037 -836 -1100 -1101 1507 1506 1505 1504 1577 1576 1570 1569 504 503 -1232 -1515 -1551 -1579 -1553 -1233 -1469 -1467 -1468" />
    </vehicle>
    <vehicle depart="17.90" id="26" type="vehicle.volkswagen.t2">
        <route edges="-176 -177 -662 -181 -182 -183 -1319 406 405 -469 -1169 -412 -413 -414 -407 -408 -409 -410 -688 -689 -1228 1553 1579 1551 -1230 -717 -718 -719 -720 -721 -713 -839 852 851 -1460 -1461 -70 -1464 1464 70" />
    </vehicle>
    <vehicle depart="18.59" id="27" type="vehicle.audi.a2">
        <route edges="-983 -1261 266 265 -749 -1271 -1133 -1134 -1135 -1136 -1137 -1138 -1139 -1140 -1141 -1546 -1547 -1548 -423 -424 -420 -421 -422 -1387 -1388 -1389 -1390 -297 -650 -651 -379 -380 -381 -382 -387 -388 -383 -384 -849" />
    </vehicle>
    <vehicle depart="19.97" id="29" type="vehicle.nissan.patrol">
        <route edges="-1379 -1380 -1033 1384 1383 1594 -1032 -1370 -1387 -1388 -1389 -1390 -297 -1487 -1488 -1145 -1489 -1490 -1471 -1472 -1473 -1482 -1491 -1147 -425 -426 -427 -1554 -1555 -1556 -430 -431 -432 -433 -434 -435 -436 -437 -1271 -370 -371 -372 -373" />
    </vehicle>
    <vehicle depart="20.65" id="30" type="vehicle.micro.microlino">
        <route edges="95 94 -1054 1291 -16 1 3 2 -448 -449 -450 -451 -1336 -1337 -463 -464 -138 40 -404 -139 -494 -495 -496 -497 -498 -150 -151 -642 -643 -644 -875 -551 -261 -568 -569 -570 -918 -241 -242 -897 -915 -914" />
    </vehicle>
    <vehicle depart="21.34" id="31" type="vehicle.diamondback.century">
        <route edges="-781 -782 -1186 -789 -779 -780 -1436 -1437 -1438 -1439 -428 -429 -1275 -1133 -1134 -1135 -1136 -1137 -1138 -1139 -1140 -1141 -1546 -1547 -1548 -423 -424 -420 -421 -422 -1387 -1388 -1389 -1390 -297 -650 -651 -652 -653 -654 -92 -93 -1357 -1578 -79 -80 -81 -82 -83 -84 1108 1107 1109 -1098 -1046 640 1043" />
    </vehicle>
    <vehicle depart="22.03" id="32" type="vehicle.lincoln.mkz_2017">
        <route edges="232 -239 45 44 43 42 667 666 -142 -143 -144 -1316 -1317 -1318 -1319 -1320 -1321 -1322 -1550 -423 -424 -420 -421 -422 -1387 -1388 -1389 -1390 -297 -1487 -1488 -1027 -1377 1386 1385" />
    </vehicle>
    <vehicle depart="22.72" id="33" type="vehicle.tesla.model3">
        <route edges="-1524 -1525 -19 -1519 -1520 -1521 -1522 -1552 -448 -449 -450 -451 -1336 -1337 -463 -464 -138 40 -404 -139 -489 -457 -458 -478 -479 -480 -481 159 -1072" />
    </vehicle>
    <vehicle depart="23.41" id="34" type="vehicle.diamondback.century">
        <route edges="-272 -273 -274 -275 -276 -277 -293 -294 -295 -1348 -1349 -1350 -1351 -1352 -1353 -1354 -1355 -1356 -1549 -658 -659 -660 -661 -662 -663 -664 -665 -603 -604 -605 -606 -607 -608 -572 -573 -764 -1586 -1587 -1589 -1571 -1572 -1573 -1574 -1575 -1590" />
    </vehicle>
    <vehicle depart="24.10" id="35" type="vehicle.jeep.wrangler_rubicon">
        <route edges="-1489 -1490 -1471 -1472 -1473 -102 -103 -104 -105 -1467 -1468 -1515 -1230 -717 -718 -719 799 850 115 -798 -799 719" />
    </vehicle>
    <vehicle depart="24.79" id="36" type="vehicle.nissan.patrol">
        <route edges="355 354 353 352 351 350 349 348 347 346 345 -434 -552 -553 -554 -555 -556 -244" />
    </vehicle>
    <vehicle depart="25.47" id="37" type="vehicle.seat.leon">
        <route edges="-998 -999 -207 -968 -223 -622 741 -160 -620 572 571 607 606 605 604 603 -142 -143 -144 -1316 -1317 -173 1089 -406" />
    </vehicle>
    <vehicle depart="26.16" id="38" type="vehicle.mercedes.coupe">
        <route edges="559 -437 -1271 -1133 -1134 -1135 -1136 -1137 -1138 -1139 -439 -440 -1245 -527 -528" />
    </vehicle>
    <vehicle depart="26.85" id="39" type="vehicle.jeep.wrangler_rubicon">
        <route edges="-172 -467 -468 -469 -677 -426 -427 -1554 -1555 -1556 -430 -431 -432 -433 -434 -435 -436 -437 -1271 -1133 -1134 -1540 -1541" />
    </vehicle>
    <vehicle depart="27.54" id="40" type="vehicle.kawasaki.ninja">
        <route edges="-79 -137 -1501 -1502 -459 -460 504 503 -1232 -1515 -1551 -1579" />
    </vehicle>
    <vehicle depart="28.23" id="41" type="vehicle.yamaha.yzf">
        <route edges="-84 -85 -86 722 721 720 719 718 717 -1229 -1579 -1553 -1233 -444 -445 -446 -447 -1491 -1147 -425 -426 -427 -1554 -1555 -1556 -658 -659 -660 -661 -662 -663 -664 -665 -666 -667 -42 -43 -44 -45 -46 -152 -153 -154 -155 484 483" />
    </vehicle>
    <vehicle depart="28.92" id="42" type="vehicle.chevrolet.impala">
        <route edges="-449 -450 -451 -1336 -1337 -463 -464 -138 40 -404 -139 -494 -495 -667 -42 -43 -44 -45 -46 -47 -48 -49 -148 -149" />
    </vehicle>
    <vehicle depart="29.61" id="43" type="vehicle.kawasaki.ninja">
        <route edges="98 -108 -1053 -1054 1291 -16 -17 1017 -635" />
    </vehicle>
    <vehicle depart="30.29" id="44" type="vehicle.diamondback.century">
        <route edges="-120 -730 -731 -1132 -82 -83 -84 -85 -1110 -1106" />
    </vehicle>
    <vehicle depart="30.98" id="45" type="vehicle.carlamotors.carlacola">
        <route edges="-1250 -1066 -857 -858 -859 -860 -624 720 719 718 717 -1229 -1579 -1553 -1233 -444 -445 -446 -447 -1491 -1147 -425 -426 -427 -1554 -1555 -1556 -658 -659 -660 -661 -662 -663 -257 -888" />
    </vehicle>
    <vehicle depart="31.67" id="46" type="vehicle.audi.etron">
        <route edges="1507 1506 1505 1504 1577 1576 1570 1569 504 503 -1232 -1515 -1551 -1579 -1227 689 688 -1518 -1519 -1520 -1521 -1522 -1552 -448 -449 -450 -451 -1336 -1337 -463 -464 -138 40 -404 -139 -489 456 455 -1311 1088 -1086 -456" />
    </vehicle>
    <vehicle depart="32.36" id="47" type="vehicle.jeep.wrangler_rubicon">
        <route edges="-1141 -1546 -1547 -1548 -423 -424 -420 -421 -422 -1387 -1388 -1389 -1390 -297 -650 -651 -379" />
    </vehicle>
    <vehicle depart="33.05" id="48" type="vehicle.kawasaki.ninja">
        <route edges="977 -227 -222 -223 -622 741 -160 -161 -162 -1543 -1544 -1586 -756 -882 -471 -472 -473 -474 -475 -476 486 485 484 483 482 481 480 479 478 -670 -671 -672 -673" />
    </vehicle>
    <vehicle depart="34.42" id="50" type="vehicle.audi.a2">
        <route edges="-1023 1167 1166 1165 1164 1162" />
    </vehicle>
    <vehicle depart="35.11" id="51" type="vehicle.diamondback.century">
        <route edges="1097 609 722 721 720 719 718 717 -1229 -1579 -1227 689 688 -1518 -1519 -1520 -1521 -1522 -1552 -448 -449 -893 -691 -692" />
    </vehicle>
    <vehicle depart="35.80" id="52" type="vehicle.audi.a2">
        <route edges="-176 -177 -254 -648 -649 -875 -551 -261 -568 -569 -570 -918" />
    </vehicle>
    <vehicle depart="36.49" id="53" type="vehicle.yamaha.yzf">
        <route edges="-1258 -1259 -968 -223 -622 741 -160 -161 -162 -1543 -1544 -1586 -756 -882 -471 -472 -473 -474 -475 -147 49 -1091 -229 -1182 -48" />
    </vehicle>
    <vehicle depart="37.18" id="54" type="vehicle.tesla.model3">
        <route edges="-558 -602 -863 -864 -865 -866 -867 -438 -1140 -1141 1356 1355 1354 1353 -324 -325 -326 769" />
    </vehicle>
    <vehicle depart="37.87" id="55" type="vehicle.lincoln.mkz_2017">
        <route edges="354 -334 -335 -321 -322 -323 320 -518 302 301 300 -290 -291 -292 273 272 271 270 -285 -422 -1387 -1388 -1389 -1390 -297 -650 -651 -652 -653 -654 -92 -93 -1357 -1578 -802 -803 -804 -130 -1580" />
    </vehicle>
    <vehicle depart="39.24" id="57" type="vehicle.seat.leon">
        <route edges="534 305 -318 -319 -1346 -1347 -531 -532 -533 -1243 -1244 -1245 -1246 338" />
    </vehicle>
    <vehicle depart="39.93" id="58" type="vehicle.dodge.charger_police">
        <route edges="-237 -238 231 230 229 1091 -49 -148 -149 -150 -151 -642 -643 -644 -875 -863 -864 -865 -866 -867 -438 -439 -440 -1245 -527 -906 -902 -909 -910 -911" />
    </vehicle>
    <vehicle depart="40.62" id="59" type="vehicle.mini.cooper_s">
        <route edges="-889 604 603 -142 -143 -144 -1316 -1317 -1318 -1319 -1320 -1321 -1322 -1550 -423 -424 -420 -421 -422 -1387 -1388 -1389 -1390 -297 -650 -651 -652 -536 -1441 1192 -1338" />
    </vehicle>
    <vehicle depart="41.31" id="60" type="vehicle.jeep.wrangler_rubicon">
        <route edges="1374 1373 -1278 -1279 603 -142 -143 -144 -1316 -1317 -1318 -1319 406 405 -469 -1169 -412 -413 -414 -407 -408 -409 -410 -688 -689 -1228 1553 1579 1551 -1230 -717 -718 -719 -720 -721 -713 -839 852 851 -1460 -1461 -70" />
    </vehicle>
    <vehicle depart="42.00" id="61" type="vehicle.lincoln.mkz_2017">
        <route edges="1450 1013 -1453 -1011 -1012 -1013 -1450 -1451 -520 -951 -509 -510 -511 -512 -1133 -1134 -1135 -1136 -1137 -1138 -1139 -1140 -1141 -1546 -1547 -1548 -423 -424 -420 -421 -422 -1387 -1388 -1389 -1390 -297 -650 -651 -652 -653 -654 -92 -93 -1357 -1578 -79 -137 -1501 -1502 -459 -676" />
    </vehicle>
    <vehicle depart="42.69" id="62" type="vehicle.seat.leon">
        <route edges="-1000 203 1493 1492 -983 -1261 266 265 748 -560 559 -437 749 -265" />
    </vehicle>
    <vehicle depart="43.38" id="63" type="vehicle.ford.mustang">
        <route edges="-1040 1098 1097 609 722 721 720 719 718 717 -1229 -1579 -1553 -1233 -444 -445 -446 -447 -1491 -1147 -425 -426 -427 -1554 -1555 -1556 -658 -659 -660 -661 -662 -663 -664 -665 -666 -667 -668 -669 -478 -479 -1095 64" />
    </vehicle>
    <vehicle depart="44.75" id="65" type="vehicle.audi.a2">
        <route edges="-254 -648 -649 -179 -180 -181 -182 -183 -1319 406 405 -469 -1169 -412 -413 -414 -407 -408 -409 -410 -688 -689 -1228 1553 1579 1551 -1230 -717 -718 -719 -720 -721 -722 -728 -729 -730 -731 -1132" />
    </vehicle>
    <vehicle depart="45.44" id="66" type="vehicle.jeep.wrangler_rubicon">
        <route edges="364 1541 1540 -1135 -1136 -1137 -1138 -1139 -1140 -1141 -1546 -1547 -1548 -423 -424 -420 -421 -422 -1387 -1388 -1389 -1390 -297 -650 -651 -652 -653 -654 -92 -93 -1357 -1578 -79 -80 -81 1132 1131 735 -725 -726 118 727" />
    </vehicle>
    <vehicle depart="46.13" id="67" type="vehicle.chevrolet.impala">
        <route edges="-119 -120 -730 797 -726 118 117 116 -850 -799 719 718 717 -1229 -1579 -1227 689 688 -1518 -1519 -1520 -1521 -1522 -1552 -448 -449 -450 -451 -1336 -1337 -463 -464 -138 40 -404 -139 -489 -490 -491 -492 -580 -581" />
    </vehicle>
    <vehicle depart="46.82" id="68" type="vehicle.jeep.wrangler_rubicon">
        <route edges="-1153 1188 346 -1138 -1139 -1140 -1141 -1549 -658 -659 -660 -661 -662 -663 -664 -665 -142 -143 -487 -488 -489 -490 -56 -57 -549 -550 1337" />
    </vehicle>
    <vehicle depart="47.51" id="69" type="vehicle.carlamotors.carlacola">
        <route edges="1381 1380 1379 1378 -1370 -1387 -1388 -1389 -1390 -297 -1487 -1488 -1145 -1489 -1490 -1471 -1472 -1473 -1482 -1491 -1147 -425 -426 -427 -1554 -1555 -1556 -430 -431 -432 -433 -434 -435 -436 -437 -1272 -1273 -1429 -1038 -675 -1428 -1284 -1285" />
    </vehicle>
    <vehicle depart="48.19" id="70" type="vehicle.dodge.charger_police">
        <route edges="-603 1279 1278 1277 1276 496 666 -142 -143 -144 -1316 -1317 -1318 -1319 406 405 -469 -1169 -412 -413 -414 -407 -408 -409 -410 -688 -689 -1228 1553 1579 1551 -1230 -717 -718 -719 -720 -721" />
    </vehicle>
    <vehicle depart="48.88" id="71" type="vehicle.audi.a2">
        <route edges="-172 -467 -468 -469 -677 -426 -427 -1554 -1555 -1556 -430 -431 -438 -439 -773 -774 348 347" />
    </vehicle>
    <vehicle depart="49.57" id="72" type="vehicle.carlamotors.carlacola">
        <route edges="-496 -1276 -1277 -1278 -1279 603 -142 -143 -144 -1316 -1317 -1318 -1319 -1320 -1321 -1322 -1550 -423 -424 -420 -421 -422 -1387 -1388 -1389 -1390 -297 -1487 -1488 -1145 -1489 -1490 -1471 -1472 -1473" />
    </vehicle>
    <vehicle depart="50.26" id="73" type="vehicle.harley-davidson.low_rider">
        <route edges="-745 -746 -240 -241 -242 -243 -244 -864 -865 -866 -867 -438 -1140 -1141 -1546 -1547 -1548 -423 -424 -420 -421 -422 -1387 -1388 -1389 -1390 -297 -1487 -1488 -655 1442 1338 1191" />
    </vehicle>
    <vehicle depart="50.95" id="74" type="vehicle.harley-davidson.low_rider">
        <route edges="-1465 -1431 -1433 -1434 -1435 -1436 -1437 -1438 -1439 -428 -429 -1275 1271 749 748 747 746 745 744 743 742 741 -160 -161 -162 -1543 -1544 -1586 -756 -882 -471 -472 -473 -474 -475 -147 49 -1091 -229 -230 -231 -239" />
    </vehicle>
    <vehicle depart="51.64" id="75" type="vehicle.dodge.charger_police">
        <route edges="966 958 125 -122 -123 -1441 1340 -1339 -1489 -1490 -1471 -1472 -1473 -1482 -1491 -1147 -425 -426 -427 -1554 -1555 -1556 -430 -431 -432 -433 -434 -435 -436 -437 -1271 -370 -371 -372 1358 -945 -952 -938" />
    </vehicle>
    <vehicle depart="52.33" id="76" type="vehicle.tesla.cybertruck">
        <route edges="-526 -508 -509 -510 -511 -512 -1133 -1134 -1135 -1136 -1137 -1138 -1139 -1140 -1141 -1546 -1547 -1548 -423 -424 -420 -421 -422 -1387 -1388 -1389 -1390 -297 -650" />
    </vehicle>
    <vehicle depart="53.01" id="77" type="vehicle.micro.microlino">
        <route edges="-1280 -1281 1281 1280 1285 1284 -1401 -833 -1430 -1431 -1433 -1434 -1435 -1436 -1437 -1438 -1439 -428 -429 -1275 1271 749 748 747 746 745 744 743 742 741 -160 -161 -162 -1543 -1544 -1586 -756 -882 -471 -472 -473 -474 -475 -476 486 485 484 483 482 481 480 479 478 458 457 -490 -56 -57 -549 -550 1337 1336 451 450 449 448 -2 -3 -14 -15" />
    </vehicle>
    <vehicle depart="53.70" id="78" type="vehicle.toyota.prius">
        <route edges="-323 320 -518 302 301 300 -290 -291 -292 273 272 271 270 -285 -422 -1387 -1388 -1389 -1390 -297 -650 -651 -379 -380 -381 -382 -387 -388 -389 -393 -394 -395 -396 -397 -800 -801" />
    </vehicle>
    <vehicle depart="54.39" id="79" type="vehicle.tesla.cybertruck">
        <route edges="-1526 -1528 -1524 -1525 -19 -1519 -35 -27 -28 -29 -30 -446 -447 -1491" />
    </vehicle>
    <vehicle depart="55.08" id="80" type="vehicle.kawasaki.ninja">
        <route edges="-1157 1155 -1293 -1294 -1295 -1296 -766 73 72 -1463 -844 -845 -846 -855 -856 -857 -858 -859 -860 -624 720 719 718 717 -1229 -1579 -1553 -1233 -444 -445 -446 -447 -1491 -1147 -425 -426 -427 -1554 -1555 -1556 -430 -431 -432 -433 -434 -552 -553 -554 -246 -898" />
    </vehicle>
    <vehicle depart="55.77" id="81" type="vehicle.citroen.c3">
        <route edges="-1524 -1525 -19 -1519 -35 -27 -28 -29 -30 -446 -447 -1491 -1147 -425 -426 -427 -1554 -1555 -1556 -430 -431 -432 -433 -434 -435 -436 -437 -1271 512 511 510" />
    </vehicle>
    <vehicle depart="56.46" id="82" type="vehicle.audi.a2">
        <route edges="302 301 -295 -1348 -1349 -1350 -1351 -1352 -1353 -1354 -1355 -1356 -1549 -658 -659 -660 -661 -254 -648 -649 -875 -551 -261 -568 -596 -1158" />
    </vehicle>
    <vehicle depart="57.15" id="83" type="vehicle.audi.tt">
        <route edges="-155 484 483 482 481 480 479 478 458 457 -490 -56 -57 -549 -550 1337 1336 451 450 449 448 -2 -3 -4 -17 1017 634 1239 1222 -1219 -1197 -1220 1198 -73 766 1296 -99" />
    </vehicle>
    <vehicle depart="57.83" id="84" type="vehicle.mini.cooper_s">
        <route edges="-1494 202 201 200 -210 -211 -212 -213 -214 -225 -226 -227 -222 -223 -622 741 -160 -161 -162 -1543 -1544 -1586 -756 -882 -471 -472 -473 -474 -475 -476 486 485 484 483 482 481 480 479 478 458 457 -490 -56 -57 -549 -550 1337 1336 451 450 449 448 -2 -3 -4 -17 1017 634 1239 1222 -1219 -1197 -1220 1198 -73 766 1296 1295 1294 1293 -1155 -1156 -1157 1155 -1293 -1294" />
    </vehicle>
    <vehicle depart="58.52" id="85" type="vehicle.carlamotors.carlacola">
        <route edges="670 458 457 -490 -56 -57 -549 -550 1337 1336 451 450 449 448 -2 -3 -4 -17 1017 634 633 -630 -631 -1250 -1066 -857 -858 -859 -860 1224 -839 852 851 -1460 -1461 -70 -71 1297 -766" />
    </vehicle>
    <vehicle depart="59.90" id="87" type="vehicle.audi.tt">
        <route edges="1549 -1546 -1547 -1548 -423 -1423" />
    </vehicle>
    <vehicle depart="60.59" id="88" type="vehicle.volkswagen.t2">
        <route edges="-1222 -1239 -634 -1017 -18 1525 1524 1523 -1522 -1552 -448 -449 -450 -451 -1336 -1337 -463 -464 -138 40 -404 -139 -494 -495 666 -603 -604 -605 -606 -607 -608 -881 -882 -471 -472 -473" />
    </vehicle>
    <vehicle depart="61.28" id="89" type="vehicle.audi.etron">
        <route edges="-497 -1371 605 604 603 -142 -143 -144 -1316 -1317 -1318 -1319 406 405 -469 -1169 -412 -413 -414 -407 -408 -409 -410 -688 -689 -1228 -1233 -1469 -1467 -1231 -503 -504 -1569 -1570 -1576 -121 -122 -541 -542 -543" />
    </vehicle>
    <vehicle depart="62.65" id="91" type="vehicle.nissan.micra">
        <route edges="935 934 933 932 931 -927 -429 -1275 -1133 -1134 -1135 -1136 -1137 -1138 -1139 -1140 -1141 -1546 -1547 -1548 -423 -424 -420 -421 -422 -1387 -1388 -1389 -1390 -297 -650 -651 -652 -653 -654 1577 -121 -122" />
    </vehicle>
    <vehicle depart="63.34" id="92" type="vehicle.micro.microlino">
        <route edges="-454 -30 -446 -447 -1491 -1147 -1146 -420 -284 -269 -270 -271 -272 -273 -274 -275 -276 -277 -293 -294 -295" />
    </vehicle>
    <vehicle depart="64.72" id="94" type="vehicle.nissan.micra">
        <route edges="-1436 -1437 -1438 -1439 -428 -429 -1275 -370 -371 -372 -373 -521 -374 -507 -508" />
    </vehicle>
    <vehicle depart="65.41" id="95" type="vehicle.seat.leon">
        <route edges="-492 -580 -1069 -55 -56 -57 -1310 -1311 -1312 -1313 -1314 -1315 -1316 -1317 -173 -174" />
    </vehicle>
    <vehicle depart="66.78" id="97" type="vehicle.kawasaki.ninja">
        <route edges="-537 -538 -539 -540 -104 -105 1469 -444 -445 -446 -447 -1491 -1147 -425 -426 -427 -1554 -1555 -1556 1549 1356 1355 1354 1353 1352 1351 1350 1349 1348 1347 -518 302" />
    </vehicle>
    <vehicle depart="67.47" id="98" type="vehicle.audi.tt">
        <route edges="-769 -327 -328 -329 -330 -442 -1141 -1546 -1547 -1548 -423 -424 -420 -421 -422 -1387 -1388 -1389 -1390 -297 -650 -651 -652 -653 -654 1577 1576 1570 1569 504 503 -1232 -1515 -1230 -717 -718 -719 -720 -721 -713 -839 -840 -841 -842 -91 -72 -73 766 1296 1295 1294 1293 1292 1054 1053 -623 -1115" />
    </vehicle>
    <vehicle depart="69.54" id="101" type="vehicle.ford.mustang">
        <route edges="269 268 -423 -424 -420 -421 -422 -1387 -1388 -1389 -1390 -297 -650 -651 -652 -653 -654 -92 -93 -1357 -1578 -79 -137" />
    </vehicle>
    <vehicle depart="70.23" id="102" type="vehicle.tesla.model3">
        <route edges="-629 1225 -624 720 719 718 717 -1229 -1579 -1553 -1233 -444 -445 -446 -447 -1491 -1147 -425 -426 -427 -1554 -1555 -1556 -430 -431 -432 -433 -434 -435 -436 -437 -1271 -370 -371 -372 1358 -945 -952 937 936 935 934 944 -1478" />
    </vehicle>
    <vehicle depart="70.92" id="103" type="vehicle.mini.cooper_s">
        <route edges="-451 -1336 -1337 -463 -464 -465 -466 -467 -468 -469 -677 -426 -427 -1554 -1555 -1556 -430 -431 -432 -433 -434 -435 -436 -437 -1271 -1133 -1134" />
    </vehicle>
    <vehicle depart="71.60" id="104" type="vehicle.audi.etron">
        <route edges="-41 -21 -22 -464 -465 -466 -467 -468 -469 -677 -426 -427 -1554 -1555 -1556 -430 -431 -432 -433 -434 -435 -436 -437 -1271 -370 -371 -372 1358 -945 -952 937 936" />
    </vehicle>
    <vehicle depart="72.98" id="106" type="vehicle.volkswagen.t2">
        <route edges="-56 -57 -1310 -455 -456 -457 -458" />
    </vehicle>
    <vehicle depart="74.36" id="108" type="vehicle.bh.crossbike">
        <route edges="-779 -780 -1436 -1437 -1438 -1439 -428 -429 -1275 -1133 -1134 -1135 -1136 -1137 -1138 -1139 -1140 -1141 -1546 -1547 -1548 -423 -424 -420 -421 -422 -1387 -1388 -1389 -1390 -297 -650 -651 -652 -653 -654 -92 -1159 -1168 1168 1159" />
    </vehicle>
    <vehicle depart="76.42" id="111" type="vehicle.audi.a2">
        <route edges="-750 573 572 571 607 606 605 604 1279 1278 1277" />
    </vehicle>
    <vehicle depart="77.11" id="112" type="vehicle.chevrolet.impala">
        <route edges="-1127 -381 -382 -387 -388 -389 1510 1509 -794" />
    </vehicle>
    <vehicle depart="77.80" id="113" type="vehicle.kawasaki.ninja">
        <route edges="-662 -181 -182 -183 -1319 -1320 -1321 -1322 -1550 -268 -269 -270 -286 286 270 269 268" />
    </vehicle>
    <vehicle depart="79.18" id="115" type="vehicle.jeep.wrangler_rubicon">
        <route edges="-1176 -806 -37 -38 -417 -418 -419 -1337 -463 -464 -138 40 -404 -139 -494 -141" />
    </vehicle>
    <vehicle depart="80.55" id="117" type="vehicle.jeep.wrangler_rubicon">
        <route edges="-1544 -1586 -1587 -1589 -1571 -1572 -1573 -1574 -1575 -739 -740 -741 -742 -743 -744 -745 -746 -747 -748 -265 -266 -1172 -1266" />
    </vehicle>
    <vehicle depart="81.24" id="118" type="vehicle.volkswagen.t2">
        <route edges="450 449 -23 -24 -25 -26 -27 -28 -29 -30 -446 -447 -1491 -1147 -425 -426 -427 -1554 -1555 -1556 -430 -431 -432 -433 -434 -435 -436 -437 -1271 -1133 -1134 -1540" />
    </vehicle>
    <vehicle depart="81.93" id="119" type="vehicle.lincoln.mkz_2017">
        <route edges="-860 -624 -721 -722 -728 -729 -730 -731 -732 -723 1357 -594 -397 -800 -801 -87" />
    </vehicle>
    <vehicle depart="82.62" id="120" type="vehicle.micro.microlino">
        <route edges="-488 139 -1313 -170 -171 -172 -467 -468 -469 -1169 -412 -413 -414 -407 -408 -409 -410 -688 -689 -1228 -1233 -1469 -1467 -1231 -503 -504 -1569 -1570 -1576 -1577 -1504 -1505 -1506 -1507 -1508 -794 -795 -793" />
    </vehicle>
    <vehicle depart="83.31" id="121" type="vehicle.carlamotors.carlacola">
        <route edges="-71 1297 -766 73 72 -1463 -844 -845 -846 -855 -856 -857 -858 -859 -860 -624 720 719 718 717 -1229 -1579 -1227 689 688" />
    </vehicle>
    <vehicle depart="84.00" id="122" type="vehicle.dodge.charger_police">
        <route edges="-1472 -1473 -1482 -1491 -1147 -425 -426 -427 -1554 -1555 -1556 -430 -431 -432 -433 -345 -346 -1188 1153" />
    </vehicle>
    <vehicle depart="84.69" id="123" type="vehicle.volkswagen.t2">
        <route edges="-1550 -423 -1423 -427 -1554 -1555 -1556 -658 -659 -660 -661 -662 -663 -664 -665 -142 -143 -144 -1316 -1317 -173 1089 -406" />
    </vehicle>
    <vehicle depart="85.37" id="124" type="vehicle.yamaha.yzf">
        <route edges="1068 234 233 668 667 666 -603 -604 -605 -606 -642 -643 -644 -875 -863 -864 -865 -245 -246 -247 -216 -217" />
    </vehicle>
    <vehicle depart="86.06" id="125" type="vehicle.ford.mustang">
        <route edges="-273 -274 -275 -276 -277 -293 -294 -295 -531 -532 1062 -517 332 1288" />
    </vehicle>
    <vehicle depart="86.75" id="126" type="vehicle.bh.crossbike">
        <route edges="-116 -117 727 -712 119 118 117 116 -850 -799 719 718 717 -1229 -1579 -1553 -1233 -444 -445 -446 -447 -1491 -1147 -425 -426 -427 -1554 -1555 -1556 -430 -431 -438 -439 -440 -1245 -527" />
    </vehicle>
    <vehicle depart="87.44" id="127" type="vehicle.nissan.micra">
        <route edges="983 -1492 -1493 -1001 -1002 -1003 -204 -205 -206 -207 1259 1258 215 -225 978" />
    </vehicle>
    <vehicle depart="88.13" id="128" type="vehicle.audi.etron">
        <route edges="-1161 -1162 -1164 -1084 -1085 -1079 -1080 1511 1510 1509 1508 1507 1506 1505 1504 1577 1576 1570 1569 504 503 -1232 -1515 -1551 -1579 -1553 -1233 -444 -445 -446 -447 -1491 -1147 -425 -426 -427 -1554 -1555 -1556 -430 -431 -432 -433 -434 -435 -436 -437 -1271 -370 -371 -372 1358 -945 -952 937 936 935 934 933 922 -1477" />
    </vehicle>
    <vehicle depart="88.82" id="129" type="vehicle.tesla.cybertruck">
        <route edges="-172 -467 -468 -405 -406 -175 -176 -177 -662 -663 -664 -665 -666 -667 -668 -669 -478 -479 -1095 -1096 -52 671" />
    </vehicle>
    <vehicle depart="89.50" id="130" type="vehicle.diamondback.century">
        <route edges="376 -1389 -1390 -297 -1487 -1488 -1145 -1489 -1490 -1471 -1472 -1473 -1482 -1491 -1147 -425 -426 -427 -1554 -1555 -1556 -430 -431 -432 -433 -434 -435 -436 -437 -1271 -1133 369 368 367" />
    </vehicle>
    <vehicle depart="90.19" id="131" type="vehicle.nissan.micra">
        <route edges="-391 -1304 1166 1165 -1084 -1085 -1079 -1080 1511 1510 1509 1508 1507 1506 1505 1504 1577 1576 1570 1569 504 503 -1232 -1515 -1551 -1579 -1553 -1233 -444 -445 -446 -447 -1491 -1147 -1146 -420 -284 -269 -270 -271 -272 -273 -274 -275 -276 -277 -293 -294 -295 -1348 -1349 -1350" />
    </vehicle>
    <vehicle depart="90.88" id="132" type="vehicle.ford.mustang">
        <route edges="210 199 -996 -211 -212 -213 -214 -225 -226 -227 -222 -223 -622 741 -160 -620 572 571 607 606 605 604 603 -142 -143 -144 -1316 -1317 -1318 -1319 406 405 -469 -1169 -412 -413 -414 -407 -408 -409 -410 -688 -689 -1228 1553 1579 1551 -1230 -717 -718 -719 -720 -721 -722 -1516 -610 -1109 1106" />
    </vehicle>
    <vehicle depart="92.26" id="134" type="vehicle.tesla.cybertruck">
        <route edges="-994 -992 204 1003 984 -1261 266 -264 -1429 -1038 -675 -1428 -1401 -833 -1430 -1431 -1433 -1434 -1435 -1436 -1437 -1438 -1439 -428 -1014" />
    </vehicle>
    <vehicle depart="92.95" id="135" type="vehicle.mercedes.coupe">
        <route edges="1577 1576 1570 1569 504 503 -1232 -1515 -1551 -1579 -1553 -1233 -444 -445 -446 -447 -1491 -1147 -425 -426 -427 -1554 -1555 -1556 -430 -431 -432 -433 -434 -435 -436 -559 -561 -216" />
    </vehicle>
    <vehicle depart="93.64" id="136" type="vehicle.toyota.prius">